version 3
run General-0-20250701-11:10:06-20564
attr configname General
attr datetime 20250701-11:10:06
attr datetimef 20250701-111006
attr experiment General
attr inifile omnetpp.ini
attr iterationvars ""
attr iterationvarsd ""
attr iterationvarsf ""
attr measurement ""
attr network BasicProjectNetwork
attr processid 20564
attr repetition 0
attr replication #0
attr resultdir results
attr runnumber 0
attr seedset 0
config image-path ../../../../../veins-veins-5.3.1/images
config cmdenv-express-mode true
config cmdenv-autoflush true
config cmdenv-status-frequency 1s
config **.cmdenv-log-level debug
config image-path ../../images
config network BasicProjectNetwork
config debug-on-errors true
config print-undisposed true
config sim-time-limit 30s
config **.scalar-recording true
config **.vector-recording true
config *.playgroundSizeX 8000m
config *.playgroundSizeY 10000m
config *.playgroundSizeZ 50m
config *.annotations.draw true
config *.obstacles.debug false
config *.manager.updateInterval 1s
config *.manager.host "\"localhost\""
config *.manager.port 9999
config *.manager.autoShutdown true
config *.manager.launchConfig "xmldoc(\"launchd.xml\")"
config *.manager.trafficLightModuleType "\"org.car2x.veins.nodes.TrafficLight\""
config *.manager.trafficLightFilter "\"gneJ1\""
config *.tls[*].mobility.x 0
config *.tls[*].mobility.y 0
config *.tls[*].mobility.z 3
config *.tls[*].@display "\"p=1000,1000;i=misc/trafficlight\""
config *.tls[*].applType "\"org.car2x.veins.modules.application.traci.TraCIDemoTrafficLightApp\""
config *.tls[*].logicType "\"org.car2x.veins.modules.world.traci.trafficLight.logics.TraCITrafficLightSimpleLogic\""
config *.rsu[0].mobility.x 2000
config *.rsu[0].mobility.y 2000
config *.rsu[0].mobility.z 3
config *.rsu[*].applType "\"TraCIDemoRSU11p\""
config *.rsu[*].appl.headerLength "80 bit"
config *.rsu[*].appl.sendBeacons true
config *.rsu[*].appl.dataOnSch false
config *.rsu[*].appl.beaconInterval 1s
config *.rsu[*].appl.beaconUserPriority 7
config *.rsu[*].appl.dataUserPriority 5
config *.rsu[*].nic.phy80211p.antennaOffsetZ "0 m"
config *.connectionManager.sendDirect true
config *.connectionManager.maxInterfDist 2600m
config *.connectionManager.drawMaxIntfDist false
config *.**.nic.mac1609_4.useServiceChannel false
config *.**.nic.mac16094.useServiceChannel false
config *.**.nic.mac1609_4.txPower 20mW
config *.**.nic.mac1609_4.bitrate 6Mbps
config *.**.nic.phy80211p.minPowerLevel -110dBm
config *.**.nic.phy80211p.useNoiseFloor true
config *.**.nic.phy80211p.noiseFloor -98dBm
config *.**.nic.phy80211p.decider "xmldoc(\"config.xml\")"
config *.**.nic.phy80211p.analogueModels "xmldoc(\"config.xml\")"
config *.**.nic.phy80211p.usePropagationDelay true
config *.**.nic.phy80211p.antenna "xmldoc(\"antenna.xml\", \"/root/Antenna[@id='monopole']\")"
config *.node[*].nic.phy80211p.antennaOffsetY "0 m"
config *.node[*].nic.phy80211p.antennaOffsetZ "1.895 m"
config *.node[*].applType "\"MyVeinsApp\""
config *.node[*].appl.headerLength "80 bit"
config *.node[*].appl.sendBeacons true
config *.node[*].appl.dataOnSch false
config *.node[*].appl.beaconInterval 1s
config *.node[*].veinsmobility.x 0
config *.node[*].veinsmobility.y 0
config *.node[*].veinsmobility.z 0
config *.node[*].veinsmobility.setHostSpeed false
config *.node[*0].veinsmobility.accidentCount 0
config *.node[*0].veinsmobility.accidentStart 5s
config *.node[*0].veinsmobility.accidentDuration 50s
config **.node[*].nic.mac1609_4.useAcks true
config **.node[*].nic.mac1609_4.pcapRecording true
config **.node[*].nic.mac1609_4.pcapFile "\"results/vehicle-network.pcap\""
config *.node[*].veinsmobility.collectStatistics true
config *.rsu[*].applLayer.collectStatistics true
config *.node[*].applLayer.packetReceived.vector-recording true
config *.node[*].applLayer.rssi.vector-recording true

vector 0 BasicProjectNetwork.node[0].veinsmobility posx ETV
vector 1 BasicProjectNetwork.node[0].veinsmobility posy ETV
vector 2 BasicProjectNetwork.node[1].veinsmobility posx ETV
vector 3 BasicProjectNetwork.node[1].veinsmobility posy ETV
vector 4 BasicProjectNetwork.node[2].veinsmobility posx ETV
vector 5 BasicProjectNetwork.node[2].veinsmobility posy ETV
vector 6 BasicProjectNetwork.node[0].veinsmobility speed ETV
vector 7 BasicProjectNetwork.node[1].veinsmobility speed ETV
vector 8 BasicProjectNetwork.node[2].veinsmobility speed ETV
vector 9 BasicProjectNetwork.node[0].veinsmobility acceleration ETV
vector 10 BasicProjectNetwork.node[0].veinsmobility co2emission ETV
vector 11 BasicProjectNetwork.node[1].veinsmobility acceleration ETV
vector 12 BasicProjectNetwork.node[1].veinsmobility co2emission ETV
vector 13 BasicProjectNetwork.node[2].veinsmobility acceleration ETV
vector 14 BasicProjectNetwork.node[2].veinsmobility co2emission ETV
vector 15 BasicProjectNetwork.node[3].veinsmobility posx ETV
vector 16 BasicProjectNetwork.node[3].veinsmobility posy ETV
vector 17 BasicProjectNetwork.node[4].veinsmobility posx ETV
vector 18 BasicProjectNetwork.node[4].veinsmobility posy ETV
vector 19 BasicProjectNetwork.node[3].veinsmobility speed ETV
vector 20 BasicProjectNetwork.node[3].veinsmobility acceleration ETV
vector 21 BasicProjectNetwork.node[3].veinsmobility co2emission ETV
vector 22 BasicProjectNetwork.node[4].veinsmobility speed ETV
vector 23 BasicProjectNetwork.node[5].veinsmobility posx ETV
vector 24 BasicProjectNetwork.node[5].veinsmobility posy ETV
vector 25 BasicProjectNetwork.node[4].veinsmobility acceleration ETV
vector 26 BasicProjectNetwork.node[4].veinsmobility co2emission ETV
vector 27 BasicProjectNetwork.node[5].veinsmobility speed ETV
vector 28 BasicProjectNetwork.node[6].veinsmobility posx ETV
vector 29 BasicProjectNetwork.node[6].veinsmobility posy ETV
vector 30 BasicProjectNetwork.node[5].veinsmobility acceleration ETV
vector 31 BasicProjectNetwork.node[5].veinsmobility co2emission ETV
vector 32 BasicProjectNetwork.node[7].veinsmobility posx ETV
vector 33 BasicProjectNetwork.node[7].veinsmobility posy ETV
vector 34 BasicProjectNetwork.node[6].veinsmobility speed ETV
vector 35 BasicProjectNetwork.node[6].veinsmobility acceleration ETV
vector 36 BasicProjectNetwork.node[6].veinsmobility co2emission ETV
vector 37 BasicProjectNetwork.node[7].veinsmobility speed ETV
vector 38 BasicProjectNetwork.node[7].veinsmobility acceleration ETV
vector 39 BasicProjectNetwork.node[7].veinsmobility co2emission ETV
vector 40 BasicProjectNetwork.node[8].veinsmobility posx ETV
vector 41 BasicProjectNetwork.node[8].veinsmobility posy ETV
vector 42 BasicProjectNetwork.node[9].veinsmobility posx ETV
vector 43 BasicProjectNetwork.node[9].veinsmobility posy ETV
vector 44 BasicProjectNetwork.node[8].veinsmobility speed ETV
vector 45 BasicProjectNetwork.node[9].veinsmobility speed ETV
vector 46 BasicProjectNetwork.node[8].veinsmobility acceleration ETV
vector 47 BasicProjectNetwork.node[8].veinsmobility co2emission ETV
vector 48 BasicProjectNetwork.node[9].veinsmobility acceleration ETV
vector 49 BasicProjectNetwork.node[9].veinsmobility co2emission ETV
vector 50 BasicProjectNetwork.node[10].veinsmobility posx ETV
vector 51 BasicProjectNetwork.node[10].veinsmobility posy ETV
vector 52 BasicProjectNetwork.node[11].veinsmobility posx ETV
vector 53 BasicProjectNetwork.node[11].veinsmobility posy ETV
vector 54 BasicProjectNetwork.node[10].veinsmobility speed ETV
vector 55 BasicProjectNetwork.node[10].veinsmobility acceleration ETV
vector 56 BasicProjectNetwork.node[10].veinsmobility co2emission ETV
vector 57 BasicProjectNetwork.node[11].veinsmobility speed ETV
vector 58 BasicProjectNetwork.node[12].veinsmobility posx ETV
vector 59 BasicProjectNetwork.node[12].veinsmobility posy ETV
vector 60 BasicProjectNetwork.node[11].veinsmobility acceleration ETV
vector 61 BasicProjectNetwork.node[11].veinsmobility co2emission ETV
0	11	1	7097.6464535605
0	84	2	7095.3076932893
0	157	3	7091.5454251844
0	230	4	7086.5117955392
0	348	5	7080.3064330327
0	523	6	7072.8405917568
0	698	7	7063.4538414598
0	942	8	7052.8614728945
0	1186	9	7040.6709140447
0	1511	10	7026.5989571377
0	1929	11	7011.0276052458
0	2347	12	6998.0001807443
0	2765	13	6984.1445833385
0	3405	14	6970.9028879637
0	4045	15	6957.2147851009
0	4685	16	6944.0268292338
0	5454	17	6930.7563712033
0	6364	18	6915.2537110795
0	7274	19	6897.9606039691
1	11	1	3713.5235541713
1	84	2	3712.8087588069
1	157	3	3711.6588967052
1	230	4	3710.1204683417
1	348	5	3707.6933383582
1	523	6	3704.2968245664
1	698	7	3700.0264114052
1	942	8	3695.2075136293
1	1186	9	3689.6615343172
1	1511	10	3683.1582186927
1	1929	11	3675.9522554146
1	2347	12	3669.7952975843
1	2765	13	3663.0788909264
1	3405	14	3656.6600691051
1	4045	15	3650.0248542883
1	4685	16	3643.632082328
1	5454	17	3637.4297654843
1	6364	18	3630.0232227563
1	7274	19	3621.7612770198
2	11	1	6658.3305918536
2	84	2	6660.6707683028
2	157	3	6665.1635645371
2	230	4	6671.1118132039
2	348	5	6678.9411199284
2	523	6	6689.04600662
2	698	7	6700.7328763416
2	942	8	6714.7779794145
2	1186	9	6730.0869011563
2	1511	10	6747.1736498745
2	1929	11	6765.8648560031
2	2347	12	6786.7937639047
2	2765	13	6809.5797268301
2	3405	14	6833.6706701148
2	4045	15	6858.6945711212
2	4685	16	6883.5425238717
2	5454	17	6909.576864309
2	6364	18	6934.9337709903
2	7274	19	6960.1085355682
3	11	1	3531.8428342596
3	84	2	3532.8541997542
3	157	3	3534.7958734631
3	230	4	3537.3665571638
3	348	5	3540.7501869197
3	523	6	3545.1172651928
3	698	7	3550.301359873
3	942	8	3556.5355168503
3	1186	9	3563.3306411577
3	1511	10	3570.914903613
3	1929	11	3579.2142630108
3	2347	12	3588.5416563324
3	2765	13	3598.8983995356
3	3405	14	3609.848286268
3	4045	15	3621.2222237011
3	4685	16	3632.8546422556
3	5454	17	3644.7366312787
3	6364	18	3656.6588190985
3	7274	19	3669.1234855809
4	11	1	6721.5588132752
4	84	2	6722.6365745214
4	157	3	6725.1642215526
4	230	4	6729.4449163004
4	348	5	6735.5462028633
4	523	6	6742.8086864582
4	698	7	6751.3403968377
4	942	8	6760.9706743915
4	1186	9	6770.0932064861
4	1511	10	6779.4604060198
4	1929	11	6789.3308953751
4	2347	12	6798.8501991088
4	2765	13	6808.3234746749
4	3405	14	6818.2023559916
4	4045	15	6827.4583487715
4	4685	16	6836.8627841848
4	5454	17	6846.7827774995
4	6364	18	6856.5585367488
4	7274	19	6865.6570390023
5	11	1	3792.796493463
5	84	2	3791.7321883643
5	157	3	3789.2360997059
5	230	4	3785.0088506169
5	348	5	3778.9837403055
5	523	6	3771.8119308286
5	698	7	3763.3867412147
5	942	8	3753.8765610409
5	1186	9	3744.8619995486
5	1511	10	3735.7276521192
5	1929	11	3726.1302883534
5	2347	12	3716.8743925777
5	2765	13	3707.6632513274
5	3405	14	3698.0577278136
5	4045	15	3689.0578569334
5	4685	16	3679.9136509651
5	5454	17	3670.2681530604
5	6364	18	3660.6764316715
5	7274	19	3651.650427444
6	84	2	2.4524649926694
6	157	3	3.9451802452793
6	230	4	5.278352229204
6	348	5	6.6957803805359
6	523	6	8.2253198518651
6	698	7	10.341637427034
6	942	8	11.669899776625
6	1186	9	13.43066936566
6	1511	10	15.632234747312
6	1929	11	17.162191306008
6	2347	12	14.435020554943
6	2765	13	15.391852465614
6	3405	14	14.709883351338
6	4045	15	15.205786775441
6	4685	16	14.650185414862
6	5454	17	14.971027613028
6	6364	18	17.179773821977
6	7274	19	19.163915512797
7	84	2	2.5498698164476
7	157	3	4.8953768052394
7	230	4	6.4812462076312
7	348	5	8.5308579648379
7	523	6	11.010343080293
7	698	7	12.78758259099
7	942	8	15.369524487644
7	1186	9	16.752518395078
7	1511	10	18.797971693333
7	1929	11	20.450912343594
7	2347	12	22.936981647485
7	2765	13	25.036776600499
7	3405	14	26.470663850871
7	4045	15	27.495779801921
7	4685	16	27.426284928496
7	5454	17	28.599913594398
7	6364	18	28.083406867917
7	7274	19	28.126497851397
8	84	2	1.5147052048706
8	157	3	3.5524009865941
8	230	4	6.0161660460755
8	348	5	8.5748588066315
8	523	6	10.206826178357
8	698	7	11.990620523901
8	942	8	13.633865914653
8	1186	9	12.816802032102
8	1511	10	13.083534937674
8	1929	11	13.767056131499
8	2347	12	13.277233186337
8	2765	13	13.213034508443
8	3405	14	13.778760982045
8	4045	15	12.909975135695
8	4685	16	13.117018372492
8	5454	17	13.836102737296
8	6364	18	13.695516984487
8	7274	19	12.815924778461
9	157	3	1.4927152526099
9	230	4	1.3331719839247
9	348	5	1.4174281513318
9	523	6	1.5295394713292
9	698	7	2.1163175751688
9	942	8	1.3282623495907
9	1186	9	1.7607695890358
9	1511	10	2.2015653816517
9	1929	11	1.529956558696
9	2347	12	-2.7271707510647
9	2765	13	0.95683191067073
9	3405	14	-0.68196911427658
9	4045	15	0.49590342410374
9	4685	16	-0.55560136057902
9	5454	17	0.32084219816607
9	6364	18	2.208746208949
9	7274	19	1.9841416908195
10	157	3	2.7252443836097
10	230	4	3.0741182330645
10	348	5	3.7480159459977
10	523	6	4.5902067554218
10	698	7	6.9856262004069
10	942	8	5.5554381241067
10	1186	9	7.6809420849383
10	1511	10	10.511094429766
10	1929	11	8.7329113049284
10	2347	12	0.973
10	2765	13	5.738666961808
10	3405	14	0.973
10	4045	15	3.9855997266246
10	4685	16	0.973
10	5454	17	3.2997822998536
10	6364	18	11.552089291951
10	7274	19	11.848400670215
11	157	3	2.3455069887917
11	230	4	1.5858694023918
11	348	5	2.0496117572067
11	523	6	2.4794851154555
11	698	7	1.7772395106964
11	942	8	2.5819418966537
11	1186	9	1.3829939074349
11	1511	10	2.0454532982549
11	1929	11	1.652940650261
11	2347	12	2.4860693038907
11	2765	13	2.0997949530138
11	3405	14	1.4338872503722
11	4045	15	1.0251159510497
11	4685	16	-0.06949487342499
11	5454	17	1.1736286659027
11	6364	18	-0.51650672648102
11	7274	19	0.043090983480212
12	157	3	4.1241863887608
12	230	4	3.9249027333988
12	348	5	5.792753061408
12	523	6	8.3437380155898
12	698	7	7.3971521417356
12	942	8	11.750474683854
12	1186	9	7.9361047027211
12	1511	10	11.89698279958
12	1929	11	11.033503000499
12	2347	12	17.073765460302
12	2765	13	16.437448980352
12	3405	14	13.247761403462
12	4045	15	11.149617438135
12	4685	16	3.8794851644835
12	5454	17	12.740048488489
12	6364	18	1.0150512747129
12	7274	19	4.8144242516092
13	157	3	2.0376957817236
13	230	4	2.4637650594814
13	348	5	2.558692760556
13	523	6	1.6319673717255
13	698	7	1.7837943455437
13	942	8	1.6432453907523
13	1186	9	-0.81706388255115
13	1511	10	0.26673290557228
13	1929	11	0.68352119382471
13	2347	12	-0.48982294516172
13	2765	13	-0.064198677893728
13	3405	14	0.56572647360153
13	4045	15	-0.86878584634978
13	4685	16	0.20704323679674
13	5454	17	0.71908436480444
13	6364	18	-0.14058575280942
13	7274	19	-0.87959220602643
14	157	3	3.0300388559467
14	230	4	4.9925385572515
14	348	5	6.8695389405201
14	523	6	5.7149944116614
14	698	7	7.0023852808265
14	942	8	7.4011257101627
14	1186	9	0.973
14	1511	10	2.789087807793
14	1929	11	4.2829945636857
14	2347	12	0.973
14	2765	13	1.7560647859065
14	3405	14	3.8949439277095
14	4045	15	0.973
14	4685	16	2.6057569066197
14	5454	17	4.4199297206187
14	6364	18	1.5439572480666
14	7274	19	0.973
15	230	4	7097.6464535605
15	348	5	7096.0704308903
15	523	6	7092.4506774865
15	698	7	7087.2287065996
15	942	8	7080.6796485856
15	1186	9	7071.2860182877
15	1511	10	7060.6072154996
15	1929	11	7048.0612848313
15	2347	12	7034.2150944248
15	2765	13	7018.4664450378
15	3405	14	7006.2203246299
15	4045	15	6993.3459467909
15	4685	16	6980.6739682315
15	5454	17	6968.5496211033
15	6364	18	6955.978325145
15	7274	19	6943.9217327621
16	230	4	3713.5235541713
16	348	5	3713.0418743204
16	523	6	3711.9355689905
16	698	7	3710.3395778884
16	942	8	3707.8631292399
16	1186	9	3707.1087103691
16	1511	10	3702.2509497386
16	1929	11	3696.5438373139
16	2347	12	3690.2057629412
16	2765	13	3682.917165619
16	3405	14	3677.2981298519
16	4045	15	3671.0940673336
16	4685	16	3664.9525158201
16	5454	17	3659.076377212
16	6364	18	3652.9836221338
16	7274	19	3647.1403212752
17	348	5	6658.3305918536
17	523	6	6660.2180452544
17	698	7	6663.9574604387
17	942	8	6669.9619222398
17	1186	9	6677.4444766348
17	1511	10	6686.9081031005
17	1929	11	6698.2323917916
17	2347	12	6710.9605104644
17	2765	13	6725.1721653607
17	3405	14	6740.8716452619
17	4045	15	6757.8243976341
17	4685	16	6776.5308806171
17	5454	17	6796.6855873505
17	6364	18	6818.080462825
17	7274	19	6840.7809225766
18	348	5	3531.8428342596
18	523	6	3532.6585442215
18	698	7	3534.2746255596
18	942	8	3536.8696031653
18	1186	9	3540.1033752721
18	1511	10	3544.193316979
18	1929	11	3549.1914774377
18	2347	12	3554.8410685741
18	2765	13	3561.1491524002
18	3405	14	3568.1176325643
18	4045	15	3575.6440999476
18	4685	16	3583.9502426479
18	5454	17	3593.0377171561
18	6364	18	3602.7621791803
18	7274	19	3613.0800592283
19	348	5	1.6526449820027
19	523	6	3.795736833103
19	698	7	5.475850154669
19	942	8	7.0363641794305
19	1186	9	9.1221237134421
19	1511	10	11.699386365362
19	1929	11	13.744957474479
19	2347	12	15.185912224581
19	2765	13	17.439499595971
19	3405	14	13.461614869634
19	4045	15	14.291277301876
19	4685	16	14.087638749235
19	5454	17	13.478828235931
19	6364	18	13.975708311011
19	7274	19	13.40350421528
20	523	6	2.1430918511003
20	698	7	1.680113321566
20	942	8	1.5605140247615
20	1186	9	2.0857595340116
20	1511	10	2.5772626519203
20	1929	11	2.045571109117
20	2347	12	1.4409547501011
20	2765	13	2.2535873713903
20	3405	14	-3.9778847263368
20	4045	15	0.82966243224219
20	4685	16	-0.2036385526415
20	5454	17	-0.60881051330361
20	6364	18	0.49688007507939
20	7274	19	-0.57220409573056
21	523	6	3.2585999722001
21	698	7	3.6065347366889
21	942	8	4.1278796895496
21	1186	9	6.205574378447
21	1511	10	9.0890366937083
21	1929	11	8.7889670243535
21	2347	12	7.4396972734471
21	2765	13	11.91290348424
21	3405	14	0.973
21	4045	15	4.9265737047328
21	4685	16	1.3564881181245
21	5454	17	0.973
21	6364	18	3.7099230986187
21	7274	19	0.973
22	523	6	2.0565801601624
22	698	7	4.0744884485379
22	942	8	6.5424963644007
22	1186	9	8.1530346178217
22	1511	10	10.311622223095
22	1929	11	12.380780070741
22	2347	12	13.928351440909
22	2765	13	15.55178177082
22	3405	14	17.179905304452
22	4045	15	18.649725934118
22	4685	16	20.467627455899
22	5454	17	22.135736065032
22	6364	18	23.508276538691
22	7274	19	24.942827362241
23	698	7	7097.6464535605
23	942	8	7096.3238595008
23	1186	9	7093.0358009417
23	1511	10	7088.1435734177
23	1929	11	7081.19286229
23	2347	12	7072.8372797531
23	2765	13	7062.7282786417
23	3405	14	7050.7308533417
23	4045	15	7036.7374287842
23	4685	16	7020.5454140246
23	5454	17	7007.2208920078
23	6364	18	6996.2356164092
23	7274	19	6986.329259103
24	698	7	3713.5235541713
24	942	8	3713.1193297134
24	1186	9	3712.1144002878
24	1511	10	3710.6191886585
24	1929	11	3708.0966109549
24	2347	12	3704.2953178017
24	2765	13	3699.6963234717
24	3405	14	3694.2382084393
24	4045	15	3687.8471867606
24	4685	16	3680.3568171395
24	5454	17	3674.2622454806
24	6364	18	3668.9399370177
24	7274	19	3664.1378976528
25	698	7	2.0179082883755
25	942	8	2.4680079158628
25	1186	9	1.610538253421
25	1511	10	2.1585876052734
25	1929	11	2.0691578476457
25	2347	12	1.5475713701686
25	2765	13	1.6234303299105
25	3405	14	1.6281235336326
25	4045	15	1.4698206296656
25	4685	16	1.8179015217815
25	5454	17	1.6681086091325
25	6364	18	1.3725404736586
25	7274	19	1.4345508235507
26	698	7	3.294290562412
26	942	8	5.3428912345986
26	1186	9	4.7178835331837
26	1511	10	7.0730277690716
26	1929	11	8.0564498459576
26	2347	12	7.2263027610123
26	2765	13	8.2922680679911
26	3405	14	9.1481911168878
26	4045	15	9.2151201709402
26	4685	16	11.856609170231
26	5454	17	12.078677293283
26	6364	18	11.220308681942
26	7274	19	12.37018432796
27	942	8	1.3868953013094
27	1186	9	3.4479158079717
27	1511	10	5.1300754876807
27	1929	11	7.4302880927455
27	2347	12	9.2055719342316
27	2765	13	11.137360740872
27	3405	14	13.21788889491
27	4045	15	15.427321533603
27	4685	16	17.960221554455
27	5454	17	14.682507274267
27	6364	18	12.202916659966
27	7274	19	11.004735895727
28	1186	9	6658.3305918536
28	1511	10	6660.4148205013
28	1929	11	6664.6585871368
28	2347	12	6670.7936138914
28	2765	13	6679.2988127062
28	3405	14	6689.4161369773
28	4045	15	6700.8263443905
28	4685	16	6714.1520038557
28	5454	17	6729.3895808655
28	6364	18	6745.8921863264
28	7274	19	6763.6879514609
29	1186	9	3531.8428342596
29	1511	10	3532.7435855418
29	1929	11	3534.5776349117
29	2347	12	3537.2290394116
29	2765	13	3540.9047727559
29	3405	14	3545.2782333568
29	4045	15	3550.3428472503
29	4685	16	3556.2576669921
29	5454	17	3563.0211237314
29	6364	18	3570.3460847831
29	7274	19	3578.2476633679
30	1186	9	2.0610205066623
30	1511	10	1.682159679709
30	1929	11	2.3002126050647
30	2347	12	1.7752838414861
30	2765	13	1.9317888066405
30	3405	14	2.0805281540379
30	4045	15	2.2094326386927
30	4685	16	2.5329000208527
30	5454	17	-3.2777142801881
30	6364	18	-2.4795906143017
30	7274	19	-1.1981807642383
31	1186	9	2.9927142691595
31	1511	10	3.4496821467333
31	1929	11	5.6253221745251
31	2347	12	5.5646851432508
31	2765	13	6.9600084652616
31	3405	14	8.5885102093344
31	4045	15	10.408041245386
31	4685	16	13.47502918402
31	5454	17	0.973
31	6364	18	0.973
31	7274	19	0.973
32	1511	10	7097.6464535605
32	1929	11	7095.4727765376
32	2347	12	7091.1370053319
32	2765	13	7084.3515466174
32	3405	14	7075.6260530157
32	4045	15	7065.4641784521
32	4685	16	7053.3225671456
32	5454	17	7037.7421668224
32	6364	18	7021.5081057835
32	7274	19	7006.6317530436
33	1511	10	3713.5235541713
33	1929	11	3712.8592132045
33	2347	12	3711.5340713347
33	2765	13	3709.4602314058
33	3405	14	3705.5640437896
33	4045	15	3700.9409951833
33	4685	16	3695.4172840926
33	5454	17	3691.8404563127
33	6364	18	3684.3241475909
33	7274	19	3677.4627012174
34	1511	10	2.2709876091918
34	1929	11	4.6240327115869
34	2347	12	6.684760694229
34	2765	13	9.2673139021499
34	3405	14	11.024299288588
34	4045	15	12.486164134019
34	4685	16	14.58223897689
34	5454	17	16.674446016387
34	6364	18	18.0587637858
34	7274	19	19.571344412188
35	1929	11	2.3530451023951
35	2347	12	2.0607279826421
35	2765	13	2.5825532079209
35	3405	14	1.7569853864377
35	4045	15	1.4618648454314
35	4685	16	2.0960748428712
35	5454	17	2.0922070394969
35	6364	18	1.3843177694129
35	7274	19	1.5125806263881
36	1929	11	3.9644111627569
36	2347	12	4.7799569429764
36	2765	13	7.3985129312971
36	3405	14	6.4336425210277
36	4045	15	6.2911549326036
36	4685	16	9.4661717891986
36	5454	17	10.750275222199
36	6364	18	8.549977463952
36	7274	19	9.8810253735076
37	1929	11	2.2793558065081
37	2347	12	4.5465656438377
37	2765	13	7.1153508812655
37	3405	14	9.5870071406709
37	4045	15	11.195612857491
37	4685	16	13.37674252938
37	5454	17	15.735600156733
37	6364	18	17.965280637564
37	7274	19	16.37610285684
38	2347	12	2.2672098373296
38	2765	13	2.5687852374278
38	3405	14	2.4716562594054
38	4045	15	1.6086057168199
38	4685	16	2.1811296718894
38	5454	17	2.3588576273527
38	6364	18	2.2296804808313
38	7274	19	-1.5891777807241
39	2347	12	3.8222408160617
39	2765	13	5.8914746676912
39	3405	14	7.3645612208624
39	4045	15	6.1199573542418
39	4685	16	9.0079267270075
39	5454	17	11.174466896709
39	6364	18	12.165984617522
39	7274	19	0.973
40	2765	13	7097.6464535605
40	3405	14	7095.6064049876
40	4045	15	7091.8813877953
40	4685	16	7086.58616576
40	5454	17	7079.9632693865
40	6364	18	7071.4517737317
40	7274	19	7061.4026607416
41	2765	13	3713.5235541713
41	3405	14	3712.9000540713
41	4045	15	3711.7615769669
41	4685	16	3710.1431981143
41	5454	17	3707.5372193069
41	6364	18	3703.6649949571
41	7274	19	3699.0932461608
42	2765	13	6658.3305918536
42	3405	14	6659.7040776026
42	4045	15	6662.7371117812
42	4685	16	6667.1923202388
42	5454	17	6673.0476086908
42	6364	18	6680.9649380067
42	7274	19	6690.7583643933
43	2765	13	3531.8428342596
43	3405	14	3532.4364203092
43	4045	15	3533.7472215153
43	4685	16	3535.672650731
43	5454	17	3538.2031593613
43	6364	18	3541.6248302709
43	7274	19	3545.874003738
44	3405	14	2.1392306727823
44	4045	15	3.9061182857724
44	4685	16	5.5526625922183
44	5454	17	7.1518389946083
44	6364	18	9.3773456454976
44	7274	19	11.07138037323
45	3405	14	1.4965580292046
45	4045	15	3.3048116124235
45	4685	16	4.8544209459098
45	5454	17	6.3799562190659
45	6364	18	8.6267678904347
45	7274	19	10.677675930643
46	4045	15	1.7668876129901
46	4685	16	1.6465443064459
46	5454	17	1.59917640239
46	6364	18	2.2255066508893
46	7274	19	1.6940347277327
47	4045	15	2.9672397548378
47	4685	16	3.5970676104973
47	5454	17	4.2451272145526
47	6364	18	6.6680503238763
47	7274	19	6.2894768643404
48	4045	15	1.8082535832189
48	4685	16	1.5496093334863
48	5454	17	1.5255352731561
48	6364	18	2.2468116713688
48	7274	19	2.0509080402087
49	4045	15	2.7129593977572
49	4685	16	3.1676569738679
49	5454	17	3.7873752707102
49	6364	18	6.2566999861456
49	7274	19	7.0151948067172
50	4685	16	7097.6464535605
50	5454	17	7096.3040685982
50	6364	18	7092.8180965676
50	7274	19	7087.1917943361
51	4685	16	3713.5235541713
51	5454	17	3713.1132810193
51	6364	18	3712.0478632941
51	7274	19	3710.3282963923
52	5454	17	6658.3305918536
52	6364	18	6659.7744473015
52	7274	19	6663.2673889837
53	5454	17	3531.8428342596
53	6364	18	3532.4668323259
53	7274	19	3533.9763940059
54	5454	17	1.4076483884361
54	6364	18	3.6554513414158
54	7274	19	5.8998390860623
55	6364	18	2.2478029529797
55	7274	19	2.2443877446465
56	6364	18	3.2710842203658
56	7274	19	4.6047872633673
57	6364	18	1.5732332607731
57	7274	19	3.8059294927632
58	7274	19	7097.6464535605
59	7274	19	3713.5235541713
60	7274	19	2.2326962319901
61	7274	19	3.3465845681276

