version 3
run General-0-20250626-09:43:12-8060
attr configname General
attr datetime 20250626-09:43:12
attr datetimef 20250626-094312
attr experiment General
attr inifile omnetpp.ini
attr iterationvars ""
attr iterationvarsd ""
attr iterationvarsf ""
attr measurement ""
attr network BasicProjectNetwork
attr processid 8060
attr repetition 0
attr replication #0
attr resultdir results
attr runnumber 0
attr seedset 0
config image-path ../../../../../veins-veins-5.3.1/images
config cmdenv-express-mode true
config cmdenv-autoflush true
config cmdenv-status-frequency 1s
config **.cmdenv-log-level trace
config image-path ../../images
config network BasicProjectNetwork
config debug-on-errors true
config print-undisposed true
config sim-time-limit 30s
config **.scalar-recording true
config **.vector-recording true
config *.playgroundSizeX 8000m
config *.playgroundSizeY 10000m
config *.playgroundSizeZ 50m
config *.annotations.draw true
config *.obstacles.debug false
config *.manager.updateInterval 1s
config *.manager.host "\"localhost\""
config *.manager.port 9999
config *.manager.autoShutdown true
config *.manager.launchConfig "xmldoc(\"launchd.xml\")"
config *.manager.trafficLightModuleType "\"org.car2x.veins.nodes.TrafficLight\""
config *.manager.trafficLightFilter "\"gneJ1\""
config *.tls[*].mobility.x 0
config *.tls[*].mobility.y 0
config *.tls[*].mobility.z 3
config *.tls[*].@display "\"p=1000,1000;i=misc/trafficlight\""
config *.tls[*].applType "\"org.car2x.veins.modules.application.traci.TraCIDemoTrafficLightApp\""
config *.tls[*].logicType "\"org.car2x.veins.modules.world.traci.trafficLight.logics.TraCITrafficLightSimpleLogic\""
config *.rsu[0].mobility.x 2000
config *.rsu[0].mobility.y 2000
config *.rsu[0].mobility.z 3
config *.rsu[*].applType "\"TraCIDemoRSU11p\""
config *.rsu[*].appl.headerLength "80 bit"
config *.rsu[*].appl.sendBeacons true
config *.rsu[*].appl.dataOnSch false
config *.rsu[*].appl.beaconInterval 1s
config *.rsu[*].appl.beaconUserPriority 7
config *.rsu[*].appl.dataUserPriority 5
config *.rsu[*].nic.phy80211p.antennaOffsetZ "0 m"
config *.connectionManager.sendDirect true
config *.connectionManager.maxInterfDist 2600m
config *.connectionManager.drawMaxIntfDist false
config *.**.nic.mac1609_4.useServiceChannel false
config *.**.nic.mac16094.useServiceChannel false
config *.**.nic.mac1609_4.txPower 20mW
config *.**.nic.mac1609_4.bitrate 6Mbps
config *.**.nic.phy80211p.minPowerLevel -110dBm
config *.**.nic.phy80211p.useNoiseFloor true
config *.**.nic.phy80211p.noiseFloor -98dBm
config *.**.nic.phy80211p.decider "xmldoc(\"config.xml\")"
config *.**.nic.phy80211p.analogueModels "xmldoc(\"config.xml\")"
config *.**.nic.phy80211p.usePropagationDelay true
config *.**.nic.phy80211p.antenna "xmldoc(\"antenna.xml\", \"/root/Antenna[@id='monopole']\")"
config *.node[*].nic.phy80211p.antennaOffsetY "0 m"
config *.node[*].nic.phy80211p.antennaOffsetZ "1.895 m"
config *.node[*].applType "\"MyVeinsApp\""
config *.node[*].appl.headerLength "80 bit"
config *.node[*].appl.sendBeacons true
config *.node[*].appl.dataOnSch false
config *.node[*].appl.beaconInterval 1s
config *.node[*].veinsmobility.x 0
config *.node[*].veinsmobility.y 0
config *.node[*].veinsmobility.z 0
config *.node[*].veinsmobility.setHostSpeed false
config *.node[*0].veinsmobility.accidentCount 0
config *.node[*0].veinsmobility.accidentStart 5s
config *.node[*0].veinsmobility.accidentDuration 50s
config **.node[*].nic.mac1609_4.useAcks true
config **.node[*].nic.mac1609_4.pcapRecording true
config **.node[*].nic.mac1609_4.pcapFile "\"results/vehicle-network.pcap\""
config *.node[*].veinsmobility.collectStatistics true
config *.rsu[*].applLayer.collectStatistics true
config *.node[*].applLayer.packetReceived.vector-recording true
config *.node[*].applLayer.rssi.vector-recording true

vector 0 BasicProjectNetwork.node[0].veinsmobility posx ETV
vector 1 BasicProjectNetwork.node[0].veinsmobility posy ETV
vector 2 BasicProjectNetwork.node[1].veinsmobility posx ETV
vector 3 BasicProjectNetwork.node[1].veinsmobility posy ETV
vector 4 BasicProjectNetwork.node[2].veinsmobility posx ETV
vector 5 BasicProjectNetwork.node[2].veinsmobility posy ETV
vector 6 BasicProjectNetwork.node[0].veinsmobility speed ETV
vector 7 BasicProjectNetwork.node[1].veinsmobility speed ETV
vector 8 BasicProjectNetwork.node[2].veinsmobility speed ETV
vector 9 BasicProjectNetwork.node[0].veinsmobility acceleration ETV
vector 10 BasicProjectNetwork.node[0].veinsmobility co2emission ETV
vector 11 BasicProjectNetwork.node[1].veinsmobility acceleration ETV
vector 12 BasicProjectNetwork.node[1].veinsmobility co2emission ETV
vector 13 BasicProjectNetwork.node[2].veinsmobility acceleration ETV
vector 14 BasicProjectNetwork.node[2].veinsmobility co2emission ETV
vector 15 BasicProjectNetwork.node[3].veinsmobility posx ETV
vector 16 BasicProjectNetwork.node[3].veinsmobility posy ETV
vector 17 BasicProjectNetwork.node[4].veinsmobility posx ETV
vector 18 BasicProjectNetwork.node[4].veinsmobility posy ETV
vector 19 BasicProjectNetwork.node[3].veinsmobility speed ETV
vector 20 BasicProjectNetwork.node[3].veinsmobility acceleration ETV
vector 21 BasicProjectNetwork.node[3].veinsmobility co2emission ETV
vector 22 BasicProjectNetwork.node[4].veinsmobility speed ETV
vector 23 BasicProjectNetwork.node[5].veinsmobility posx ETV
vector 24 BasicProjectNetwork.node[5].veinsmobility posy ETV
vector 25 BasicProjectNetwork.node[4].veinsmobility acceleration ETV
vector 26 BasicProjectNetwork.node[4].veinsmobility co2emission ETV
vector 27 BasicProjectNetwork.node[5].veinsmobility speed ETV
vector 28 BasicProjectNetwork.node[6].veinsmobility posx ETV
vector 29 BasicProjectNetwork.node[6].veinsmobility posy ETV
vector 30 BasicProjectNetwork.node[5].veinsmobility acceleration ETV
vector 31 BasicProjectNetwork.node[5].veinsmobility co2emission ETV
vector 32 BasicProjectNetwork.node[7].veinsmobility posx ETV
vector 33 BasicProjectNetwork.node[7].veinsmobility posy ETV
vector 34 BasicProjectNetwork.node[6].veinsmobility speed ETV
vector 35 BasicProjectNetwork.node[6].veinsmobility acceleration ETV
vector 36 BasicProjectNetwork.node[6].veinsmobility co2emission ETV
vector 37 BasicProjectNetwork.node[7].veinsmobility speed ETV
vector 38 BasicProjectNetwork.node[7].veinsmobility acceleration ETV
vector 39 BasicProjectNetwork.node[7].veinsmobility co2emission ETV
vector 40 BasicProjectNetwork.node[8].veinsmobility posx ETV
vector 41 BasicProjectNetwork.node[8].veinsmobility posy ETV
vector 42 BasicProjectNetwork.node[9].veinsmobility posx ETV
vector 43 BasicProjectNetwork.node[9].veinsmobility posy ETV
vector 44 BasicProjectNetwork.node[8].veinsmobility speed ETV
vector 45 BasicProjectNetwork.node[9].veinsmobility speed ETV
vector 46 BasicProjectNetwork.node[8].veinsmobility acceleration ETV
vector 47 BasicProjectNetwork.node[8].veinsmobility co2emission ETV
vector 48 BasicProjectNetwork.node[9].veinsmobility acceleration ETV
vector 49 BasicProjectNetwork.node[9].veinsmobility co2emission ETV
vector 50 BasicProjectNetwork.node[10].veinsmobility posx ETV
vector 51 BasicProjectNetwork.node[10].veinsmobility posy ETV
vector 52 BasicProjectNetwork.node[11].veinsmobility posx ETV
vector 53 BasicProjectNetwork.node[11].veinsmobility posy ETV
vector 54 BasicProjectNetwork.node[10].veinsmobility speed ETV
vector 55 BasicProjectNetwork.node[10].veinsmobility acceleration ETV
vector 56 BasicProjectNetwork.node[10].veinsmobility co2emission ETV
vector 57 BasicProjectNetwork.node[11].veinsmobility speed ETV
vector 58 BasicProjectNetwork.node[12].veinsmobility posx ETV
vector 59 BasicProjectNetwork.node[12].veinsmobility posy ETV
vector 60 BasicProjectNetwork.node[11].veinsmobility acceleration ETV
vector 61 BasicProjectNetwork.node[11].veinsmobility co2emission ETV
vector 62 BasicProjectNetwork.node[12].veinsmobility speed ETV
vector 63 BasicProjectNetwork.node[13].veinsmobility posx ETV
vector 64 BasicProjectNetwork.node[13].veinsmobility posy ETV
vector 65 BasicProjectNetwork.node[12].veinsmobility acceleration ETV
vector 66 BasicProjectNetwork.node[12].veinsmobility co2emission ETV
vector 67 BasicProjectNetwork.node[14].veinsmobility posx ETV
vector 68 BasicProjectNetwork.node[14].veinsmobility posy ETV
vector 69 BasicProjectNetwork.node[13].veinsmobility speed ETV
vector 70 BasicProjectNetwork.node[13].veinsmobility acceleration ETV
vector 71 BasicProjectNetwork.node[13].veinsmobility co2emission ETV
vector 72 BasicProjectNetwork.node[14].veinsmobility speed ETV
vector 73 BasicProjectNetwork.node[14].veinsmobility acceleration ETV
vector 74 BasicProjectNetwork.node[14].veinsmobility co2emission ETV
12	157	3	4.1241863887608
12	230	4	3.9249027333988
12	348	5	5.792753061408
12	523	6	8.3437380155898
12	698	7	7.3971521417356
12	942	8	11.750474683854
12	1186	9	7.9361047027211
12	1511	10	11.89698279958
12	1929	11	11.033503000499
12	2347	12	17.073765460302
12	2765	13	16.437448980352
12	3405	14	13.247761403462
12	4045	15	11.149617438135
12	4685	16	3.8794851644835
12	5454	17	12.740048488489
12	6364	18	1.0150512747129
12	7274	19	4.8144242516092
12	8337	20	0.73175144431715
12	9400	21	3.0039321312331
12	10628	22	11.410280712263
12	12033	23	-0.35434738523709
12	13438	24	5.6078451067632
11	157	3	2.3455069887917
11	230	4	1.5858694023918
11	348	5	2.0496117572067
11	523	6	2.4794851154555
11	698	7	1.7772395106964
11	942	8	2.5819418966537
11	1186	9	1.3829939074349
11	1511	10	2.0454532982549
11	1929	11	1.652940650261
11	2347	12	2.4860693038907
11	2765	13	2.0997949530138
11	3405	14	1.4338872503722
11	4045	15	1.0251159510497
11	4685	16	-0.06949487342499
11	5454	17	1.1736286659027
11	6364	18	-0.51650672648102
11	7274	19	0.043090983480212
11	8337	20	-0.5486037308583
11	9400	21	-0.20042272557039
11	10628	22	0.99746338105761
11	12033	23	-0.71312689585611
11	13438	24	0.17333608767949
7	84	2	2.5498698164476
7	157	3	4.8953768052394
7	230	4	6.4812462076312
7	348	5	8.5308579648379
7	523	6	11.010343080293
7	698	7	12.78758259099
7	942	8	15.369524487644
7	1186	9	16.752518395078
7	1511	10	18.797971693333
7	1929	11	20.450912343594
7	2347	12	22.936981647485
7	2765	13	25.036776600499
7	3405	14	26.470663850871
7	4045	15	27.495779801921
7	4685	16	27.426284928496
7	5454	17	28.599913594398
7	6364	18	28.083406867917
7	7274	19	28.126497851397
7	8337	20	27.577894120539
7	9400	21	27.377471394969
7	10628	22	28.374934776026
7	12033	23	27.66180788017
7	13438	24	27.83514396785
3	11	1	3531.8428342596
3	84	2	3532.8541997542
3	157	3	3534.7958734631
3	230	4	3537.3665571638
3	348	5	3540.7501869197
3	523	6	3545.1172651928
3	698	7	3550.301359873
3	942	8	3556.5355168503
3	1186	9	3563.3306411577
3	1511	10	3570.914903613
3	1929	11	3579.2142630108
3	2347	12	3588.5416563324
3	2765	13	3598.8983995356
3	3405	14	3609.848286268
3	4045	15	3621.2222237011
3	4685	16	3632.8546422556
3	5454	17	3644.7366312787
3	6364	18	3656.6588190985
3	7274	19	3669.1234855809
3	8337	20	3680.1172190456
3	9400	21	3691.0181957042
3	10628	22	3702.3087070562
3	12033	23	3714.1684505289
3	13438	24	3728.8599856705
2	11	1	6658.3305918536
2	84	2	6660.6707683028
2	157	3	6665.1635645371
2	230	4	6671.1118132039
2	348	5	6678.9411199284
2	523	6	6689.04600662
2	698	7	6700.7328763416
2	942	8	6714.7779794145
2	1186	9	6730.0869011563
2	1511	10	6747.1736498745
2	1929	11	6765.8648560031
2	2347	12	6786.7937639047
2	2765	13	6809.5797268301
2	3405	14	6833.6706701148
2	4045	15	6858.6945711212
2	4685	16	6883.5425238717
2	5454	17	6909.576864309
2	6364	18	6934.9337709903
2	7274	19	6960.1085355682
2	8337	20	6985.3636247297
2	9400	21	7010.4407639408
2	10628	22	7036.4348739566
2	12033	23	7061.3650287381
2	13438	24	7084.9204319683
vector 75 BasicProjectNetwork.node[15].veinsmobility posx ETV
vector 76 BasicProjectNetwork.node[15].veinsmobility posy ETV
vector 77 BasicProjectNetwork.node[16].veinsmobility posx ETV
vector 78 BasicProjectNetwork.node[16].veinsmobility posy ETV
vector 79 BasicProjectNetwork.node[15].veinsmobility speed ETV
vector 80 BasicProjectNetwork.node[16].veinsmobility speed ETV
vector 81 BasicProjectNetwork.node[15].veinsmobility acceleration ETV
vector 82 BasicProjectNetwork.node[15].veinsmobility co2emission ETV
vector 83 BasicProjectNetwork.node[16].veinsmobility acceleration ETV
vector 84 BasicProjectNetwork.node[16].veinsmobility co2emission ETV
vector 85 BasicProjectNetwork.node[17].veinsmobility posx ETV
vector 86 BasicProjectNetwork.node[17].veinsmobility posy ETV
10	157	3	2.7252443836097
10	230	4	3.0741182330645
10	348	5	3.7480159459977
10	523	6	4.5902067554218
10	698	7	6.9856262004069
10	942	8	5.5554381241067
10	1186	9	7.6809420849383
10	1511	10	10.511094429766
10	1929	11	8.7329113049284
10	2347	12	0.973
10	2765	13	5.738666961808
10	3405	14	0.973
10	4045	15	3.9855997266246
10	4685	16	0.973
10	5454	17	3.2997822998536
10	6364	18	11.552089291951
10	7274	19	11.848400670215
10	8337	20	14.831431291694
10	9400	21	15.071564762141
10	10628	22	18.575208668709
10	12033	23	18.825286615291
10	13438	24	24.353848721858
10	14843	25	6.7805538756709
10	16437	26	0.973
10	18031	27	9.6505142843594
10	19625	28	7.9777383351826
9	157	3	1.4927152526099
9	230	4	1.3331719839247
9	348	5	1.4174281513318
9	523	6	1.5295394713292
9	698	7	2.1163175751688
9	942	8	1.3282623495907
9	1186	9	1.7607695890358
9	1511	10	2.2015653816517
9	1929	11	1.529956558696
9	2347	12	-2.7271707510647
9	2765	13	0.95683191067073
9	3405	14	-0.68196911427658
9	4045	15	0.49590342410374
9	4685	16	-0.55560136057902
9	5454	17	0.32084219816607
9	6364	18	2.208746208949
9	7274	19	1.9841416908195
9	8337	20	2.2788196234033
9	9400	21	2.0537621400552
9	10628	22	2.3478866785532
9	12033	23	2.1277886533644
9	13438	24	2.5967283024685
9	14843	25	0.20157339791056
9	16437	26	-1.048620010959
9	18031	27	0.61519215807784
9	19625	28	0.36660318616778
6	84	2	2.4524649926694
6	157	3	3.9451802452793
6	230	4	5.278352229204
6	348	5	6.6957803805359
6	523	6	8.2253198518651
6	698	7	10.341637427034
6	942	8	11.669899776625
6	1186	9	13.43066936566
6	1511	10	15.632234747312
6	1929	11	17.162191306008
6	2347	12	14.435020554943
6	2765	13	15.391852465614
6	3405	14	14.709883351338
6	4045	15	15.205786775441
6	4685	16	14.650185414862
6	5454	17	14.971027613028
6	6364	18	17.179773821977
6	7274	19	19.163915512797
6	8337	20	21.4427351362
6	9400	21	23.496497276255
6	10628	22	25.844383954808
6	12033	23	27.972172608173
6	13438	24	30.568900910641
6	14843	25	30.770474308552
6	16437	26	29.721854297593
6	18031	27	30.337046455671
6	19625	28	30.703649641839
1	11	1	3713.5235541713
1	84	2	3712.8087588069
1	157	3	3711.6588967052
1	230	4	3710.1204683417
1	348	5	3707.6933383582
1	523	6	3704.2968245664
1	698	7	3700.0264114052
1	942	8	3695.2075136293
1	1186	9	3689.6615343172
1	1511	10	3683.1582186927
1	1929	11	3675.9522554146
1	2347	12	3669.7952975843
1	2765	13	3663.0788909264
1	3405	14	3656.6600691051
1	4045	15	3650.0248542883
1	4685	16	3643.632082328
1	5454	17	3637.4297654843
1	6364	18	3630.0232227563
1	7274	19	3621.7612770198
1	8337	20	3614.4497899942
1	9400	21	3605.0215361256
1	10628	22	3594.651164315
1	12033	23	3583.6489721678
1	13438	24	3571.6440648866
1	14843	25	3559.4425161689
1	16437	26	3547.6392875964
1	18031	27	3535.6072792135
1	19625	28	3523.4594209307
0	11	1	7097.6464535605
0	84	2	7095.3076932893
0	157	3	7091.5454251844
0	230	4	7086.5117955392
0	348	5	7080.3064330327
0	523	6	7072.8405917568
0	698	7	7063.4538414598
0	942	8	7052.8614728945
0	1186	9	7040.6709140447
0	1511	10	7026.5989571377
0	1929	11	7011.0276052458
0	2347	12	6998.0001807443
0	2765	13	6984.1445833385
0	3405	14	6970.9028879637
0	4045	15	6957.2147851009
0	4685	16	6944.0268292338
0	5454	17	6930.7563712033
0	6364	18	6915.2537110795
0	7274	19	6897.9606039691
0	8337	20	6877.8805122801
0	9400	21	6856.355263262
0	10628	22	6832.6791044794
0	12033	23	6806.9576682301
0	13438	24	6778.8403811932
0	14843	25	6750.5881794258
0	16437	26	6723.3062967398
0	18031	27	6695.4530196438
0	19625	28	6667.2504010282
26	698	7	3.294290562412
26	942	8	5.3428912345986
26	1186	9	4.7178835331837
26	1511	10	7.0730277690716
26	1929	11	8.0564498459576
26	2347	12	7.2263027610123
26	2765	13	8.2922680679911
26	3405	14	9.1481911168878
26	4045	15	9.2151201709402
26	4685	16	11.856609170231
26	5454	17	12.078677293283
26	6364	18	11.220308681942
26	7274	19	12.37018432796
26	8337	20	14.961206220185
26	9400	21	19.04942363525
26	10628	22	21.103982733786
26	12033	23	7.3516256647133
26	13438	24	7.2577921978572
26	14843	25	7.0179088577183
26	16437	26	8.5466034935214
26	18031	27	6.2347495151444
26	19625	28	6.1120033418748
25	698	7	2.0179082883755
25	942	8	2.4680079158628
25	1186	9	1.610538253421
25	1511	10	2.1585876052734
25	1929	11	2.0691578476457
25	2347	12	1.5475713701686
25	2765	13	1.6234303299105
25	3405	14	1.6281235336326
25	4045	15	1.4698206296656
25	4685	16	1.8179015217815
25	5454	17	1.6681086091325
25	6364	18	1.3725404736586
25	7274	19	1.4345508235507
25	8337	20	1.686327641597
25	9400	21	2.0770440255059
25	10628	22	2.1262006659992
25	12033	23	0.26212600798175
25	13438	24	0.23769308680203
25	14843	25	0.19632262510713
25	16437	26	0.37678970384877
25	18031	27	0.072825484257191
25	19625	28	0.05445870226249
22	523	6	2.0565801601624
22	698	7	4.0744884485379
22	942	8	6.5424963644007
22	1186	9	8.1530346178217
22	1511	10	10.311622223095
22	1929	11	12.380780070741
22	2347	12	13.928351440909
22	2765	13	15.55178177082
22	3405	14	17.179905304452
22	4045	15	18.649725934118
22	4685	16	20.467627455899
22	5454	17	22.135736065032
22	6364	18	23.508276538691
22	7274	19	24.942827362241
22	8337	20	26.629155003838
22	9400	21	28.706199029344
22	10628	22	30.832399695343
22	12033	23	31.094525703325
22	13438	24	31.332218790127
22	14843	25	31.528541415234
22	16437	26	31.905331119083
22	18031	27	31.97815660334
22	19625	28	32.032615305603
18	348	5	3531.8428342596
18	523	6	3532.6585442215
18	698	7	3534.2746255596
18	942	8	3536.8696031653
18	1186	9	3540.1033752721
18	1511	10	3544.193316979
18	1929	11	3549.1914774377
18	2347	12	3554.8410685741
18	2765	13	3561.1491524002
18	3405	14	3568.1176325643
18	4045	15	3575.6440999476
18	4685	16	3583.9502426479
18	5454	17	3593.0377171561
18	6364	18	3602.7621791803
18	7274	19	3613.0800592283
18	8337	20	3624.0955076022
18	9400	21	3636.331568035
18	10628	22	3649.0744120745
18	12033	23	3662.6374494743
18	13438	24	3675.7709460897
18	14843	25	3688.3317041095
18	16437	26	3701.0269756945
18	18031	27	3714.680924387
18	19625	28	3731.8378023845
17	348	5	6658.3305918536
17	523	6	6660.2180452544
17	698	7	6663.9574604387
17	942	8	6669.9619222398
17	1186	9	6677.4444766348
17	1511	10	6686.9081031005
17	1929	11	6698.2323917916
17	2347	12	6710.9605104644
17	2765	13	6725.1721653607
17	3405	14	6740.8716452619
17	4045	15	6757.8243976341
17	4685	16	6776.5308806171
17	5454	17	6796.6855873505
17	6364	18	6818.080462825
17	7274	19	6840.7809225766
17	8337	20	6865.0161086125
17	9400	21	6891.0146164004
17	10628	22	6919.049833977
17	12033	23	6946.9853319056
17	13438	24	6975.3792539631
17	14843	25	7004.2556624966
17	16437	26	7033.483947733
17	18031	27	7062.3313521806
17	19625	28	7089.2880327355
vector 87 BasicProjectNetwork.node[18].veinsmobility posx ETV
vector 88 BasicProjectNetwork.node[18].veinsmobility posy ETV
vector 89 BasicProjectNetwork.node[17].veinsmobility speed ETV
vector 90 BasicProjectNetwork.node[17].veinsmobility acceleration ETV
vector 91 BasicProjectNetwork.node[17].veinsmobility co2emission ETV
vector 92 BasicProjectNetwork.node[18].veinsmobility speed ETV
4	11	1	6721.5588132752
4	84	2	6722.6365745214
4	157	3	6725.1642215526
4	230	4	6729.4449163004
4	348	5	6735.5462028633
4	523	6	6742.8086864582
4	698	7	6751.3403968377
4	942	8	6760.9706743915
4	1186	9	6770.0932064861
4	1511	10	6779.4604060198
4	1929	11	6789.3308953751
4	2347	12	6798.8501991088
4	2765	13	6808.3234746749
4	3405	14	6818.2023559916
4	4045	15	6827.4583487715
4	4685	16	6836.8627841848
4	5454	17	6846.7827774995
4	6364	18	6856.5585367488
4	7274	19	6865.6570390023
4	8337	20	6872.1490295233
4	9400	21	6876.0406599706
4	10628	22	6878.1030664796
4	12033	23	6878.1416658819
4	13438	24	6878.1430839459
4	14843	25	6878.1434059188
4	16437	26	6878.1434059188
4	18031	27	6878.1434829464
4	19625	28	6878.1434829464
4	21420	29	6878.1434829464
4	23014	30	6878.1434829464
5	11	1	3792.796493463
5	84	2	3791.7321883643
5	157	3	3789.2360997059
5	230	4	3785.0088506169
5	348	5	3778.9837403055
5	523	6	3771.8119308286
5	698	7	3763.3867412147
5	942	8	3753.8765610409
5	1186	9	3744.8619995486
5	1511	10	3735.7276521192
5	1929	11	3726.1302883534
5	2347	12	3716.8743925777
5	2765	13	3707.6632513274
5	3405	14	3698.0577278136
5	4045	15	3689.0578569334
5	4685	16	3679.9136509651
5	5454	17	3670.2681530604
5	6364	18	3660.6764316715
5	7274	19	3651.650427444
5	8337	20	3645.2101659311
5	9400	21	3641.2734310941
5	10628	22	3639.3052462022
5	12033	23	3639.2685118122
5	13438	24	3639.2672450083
5	14843	25	3639.2669573792
5	16437	26	3639.2669573792
5	18031	27	3639.2668885678
5	19625	28	3639.2668885678
5	21420	29	3639.2668885678
5	23014	30	3639.2668885678
8	84	2	1.5147052048706
8	157	3	3.5524009865941
8	230	4	6.0161660460755
8	348	5	8.5748588066315
8	523	6	10.206826178357
8	698	7	11.990620523901
8	942	8	13.633865914653
8	1186	9	12.816802032102
8	1511	10	13.083534937674
8	1929	11	13.767056131499
8	2347	12	13.277233186337
8	2765	13	13.213034508443
8	3405	14	13.778760982045
8	4045	15	12.909975135695
8	4685	16	13.117018372492
8	5454	17	13.836102737296
8	6364	18	13.695516984487
8	7274	19	12.815924778461
8	8337	20	9.1444569515169
8	9400	21	5.5376083405444
8	10628	22	2.8508061749849
8	12033	23	0.05328593687509
8	13438	24	0.001901478184602
8	14843	25	0.00043173252150869
8	16437	26	0
8	18031	27	0.0001032861621527
8	19625	28	0
8	21420	29	0
8	23014	30	0
13	157	3	2.0376957817236
13	230	4	2.4637650594814
13	348	5	2.558692760556
13	523	6	1.6319673717255
13	698	7	1.7837943455437
13	942	8	1.6432453907523
13	1186	9	-0.81706388255115
13	1511	10	0.26673290557228
13	1929	11	0.68352119382471
13	2347	12	-0.48982294516172
13	2765	13	-0.064198677893728
13	3405	14	0.56572647360153
13	4045	15	-0.86878584634978
13	4685	16	0.20704323679674
13	5454	17	0.71908436480444
13	6364	18	-0.14058575280942
13	7274	19	-0.87959220602643
13	8337	20	-3.6714678269436
13	9400	21	-3.6068486109725
13	10628	22	-2.6868021655595
13	12033	23	-2.7975202381098
13	13438	24	-0.051384458690488
13	14843	25	-0.0014697456630933
13	16437	26	-0.00043173252150869
13	18031	27	0.0001032861621527
13	19625	28	-0.0001032861621527
13	21420	29	0
13	23014	30	0
14	157	3	3.0300388559467
14	230	4	4.9925385572515
14	348	5	6.8695389405201
14	523	6	5.7149944116614
14	698	7	7.0023852808265
14	942	8	7.4011257101627
14	1186	9	0.973
14	1511	10	2.789087807793
14	1929	11	4.2829945636857
14	2347	12	0.973
14	2765	13	1.7560647859065
14	3405	14	3.8949439277095
14	4045	15	0.973
14	4685	16	2.6057569066197
14	5454	17	4.4199297206187
14	6364	18	1.5439572480666
14	7274	19	0.973
14	8337	20	0.973
14	9400	21	0.973
14	10628	22	0.973
14	12033	23	0.973
14	13438	24	1.1100681800593
14	14843	25	1.1100206738534
14	16437	26	0.973
14	18031	27	1.1100049850955
14	19625	28	0.973
14	21420	29	0.973
14	23014	30	0.973
15	230	4	7097.6464535605
15	348	5	7096.0704308903
15	523	6	7092.4506774865
15	698	7	7087.2287065996
15	942	8	7080.6796485856
15	1186	9	7071.2860182877
15	1511	10	7060.6072154996
15	1929	11	7048.0612848313
15	2347	12	7034.2150944248
15	2765	13	7018.4664450378
15	3405	14	7006.2203246299
15	4045	15	6993.3459467909
15	4685	16	6980.6739682315
15	5454	17	6968.5496211033
15	6364	18	6955.978325145
15	7274	19	6943.9217327621
15	8337	20	6930.1882864699
15	9400	21	6916.2111748329
15	10628	22	6905.6215709744
15	12033	23	6898.5695256471
15	13438	24	6895.5781839868
15	14843	25	6895.4912877663
15	16437	26	6895.4817686787
15	18031	27	6895.4760140968
15	19625	28	6895.4740295496
15	21420	29	6895.4733873491
15	23014	30	6895.4733873491
16	230	4	3713.5235541713
16	348	5	3713.0418743204
16	523	6	3711.9355689905
16	698	7	3710.3395778884
16	942	8	3707.8631292399
16	1186	9	3707.1087103691
16	1511	10	3702.2509497386
16	1929	11	3696.5438373139
16	2347	12	3690.2057629412
16	2765	13	3682.917165619
16	3405	14	3677.2981298519
16	4045	15	3671.0940673336
16	4685	16	3664.9525158201
16	5454	17	3659.076377212
16	6364	18	3652.9836221338
16	7274	19	3647.1403212752
16	8337	20	3644.2567536365
16	9400	21	3637.5752183921
16	10628	22	3632.5130272011
16	12033	23	3629.1419094321
16	13438	24	3627.7119462716
16	14843	25	3627.6704069196
16	16437	26	3627.6658564716
16	18031	27	3627.6631055855
16	19625	28	3627.6621569044
16	21420	29	3627.6618499107
16	23014	30	3627.6618499107
19	348	5	1.6526449820027
19	523	6	3.795736833103
19	698	7	5.475850154669
19	942	8	7.0363641794305
19	1186	9	9.1221237134421
19	1511	10	11.699386365362
19	1929	11	13.744957474479
19	2347	12	15.185912224581
19	2765	13	17.439499595971
19	3405	14	13.461614869634
19	4045	15	14.291277301876
19	4685	16	14.087638749235
19	5454	17	13.478828235931
19	6364	18	13.975708311011
19	7274	19	13.40350421528
19	8337	20	13.917397551687
19	9400	21	15.48918796451
19	10628	22	11.735211744439
19	12033	23	7.8149519332334
19	13438	24	3.3149519332334
19	14843	25	0.096296855085573
19	16437	26	0.010548884533556
19	18031	27	0.0063771259161733
19	19625	28	0.002199240045303
19	21420	29	0.00071167525615844
19	23014	30	0
20	523	6	2.1430918511003
20	698	7	1.680113321566
20	942	8	1.5605140247615
20	1186	9	2.0857595340116
20	1511	10	2.5772626519203
20	1929	11	2.045571109117
20	2347	12	1.4409547501011
20	2765	13	2.2535873713903
20	3405	14	-3.9778847263368
20	4045	15	0.82966243224219
20	4685	16	-0.2036385526415
20	5454	17	-0.60881051330361
20	6364	18	0.49688007507939
20	7274	19	-0.57220409573056
20	8337	20	0.51389333640691
20	9400	21	1.5717904128228
20	10628	22	-3.753976220071
20	12033	23	-3.9202598112053
20	13438	24	-4.5
20	14843	25	-3.2186550781478
20	16437	26	-0.085747970552017
20	18031	27	-0.004171758617383
20	19625	28	-0.0041778858708703
20	21420	29	-0.0014875647891446
20	23014	30	-0.00071167525615844
21	523	6	3.2585999722001
21	698	7	3.6065347366889
21	942	8	4.1278796895496
21	1186	9	6.205574378447
21	1511	10	9.0890366937083
21	1929	11	8.7889670243535
21	2347	12	7.4396972734471
21	2765	13	11.91290348424
21	3405	14	0.973
21	4045	15	4.9265737047328
21	4685	16	1.3564881181245
21	5454	17	0.973
21	6364	18	3.7099230986187
21	7274	19	0.973
21	8337	20	3.7540484062226
21	9400	21	8.0678139153731
21	10628	22	0.973
21	12033	23	0.973
21	13438	24	0.973
21	14843	25	0.973
21	16437	26	1.1102908828472
21	18031	27	1.1103012210551
21	19625	28	1.1101038769909
21	21420	29	1.1100340760766
21	23014	30	0.973
23	698	7	7097.6464535605
23	942	8	7096.3238595008
23	1186	9	7093.0358009417
23	1511	10	7088.1435734177
23	1929	11	7081.19286229
23	2347	12	7072.8372797531
23	2765	13	7062.7282786417
23	3405	14	7050.7308533417
23	4045	15	7036.7374287842
23	4685	16	7020.5454140246
23	5454	17	7007.2208920078
23	6364	18	6996.2356164092
23	7274	19	6986.329259103
23	8337	20	6975.6509835091
23	9400	21	6965.4310482948
23	10628	22	6955.0513884879
23	12033	23	6944.9529035539
23	13438	24	6934.7333623218
23	14843	25	6922.5960861026
23	16437	26	6908.9743864796
23	18031	27	6893.9143059363
23	19625	28	6876.2922103639
23	21420	29	6856.8629693148
23	23014	30	6836.2057973096
24	698	7	3713.5235541713
24	942	8	3713.1193297134
24	1186	9	3712.1144002878
24	1511	10	3710.6191886585
24	1929	11	3708.0966109549
24	2347	12	3704.2953178017
24	2765	13	3699.6963234717
24	3405	14	3694.2382084393
24	4045	15	3687.8471867606
24	4685	16	3680.3568171395
24	5454	17	3674.2622454806
24	6364	18	3668.9399370177
24	7274	19	3664.1378976528
24	8337	20	3658.9616761451
24	9400	21	3654.0076320208
24	10628	22	3648.9761624861
24	12033	23	3644.0809905596
24	13438	24	3639.3082176329
24	14843	25	3633.5311119765
24	16437	26	3627.0232159458
24	18031	27	3620.3640457327
24	19625	28	3613.7540993811
24	21420	29	3605.2439159714
24	23014	30	3596.1958876903
27	942	8	1.3868953013094
27	1186	9	3.4479158079717
27	1511	10	5.1300754876807
27	1929	11	7.4302880927455
27	2347	12	9.2055719342316
27	2765	13	11.137360740872
27	3405	14	13.21788889491
27	4045	15	15.427321533603
27	4685	16	17.960221554455
27	5454	17	14.682507274267
27	6364	18	12.202916659966
27	7274	19	11.004735895727
27	8337	20	11.86224149807
27	9400	21	11.353082109724
27	10628	22	11.530516347398
27	12033	23	11.218165891982
27	13438	24	11.557676187196
27	14843	25	13.485188938925
27	16437	26	15.09532665521
27	18031	27	16.491090974856
27	19625	28	18.890679280755
27	21420	29	21.208540212728
27	23014	30	22.54892314362
28	1186	9	6658.3305918536
28	1511	10	6660.4148205013
28	1929	11	6664.6585871368
28	2347	12	6670.7936138914
28	2765	13	6679.2988127062
28	3405	14	6689.4161369773
28	4045	15	6700.8263443905
28	4685	16	6714.1520038557
28	5454	17	6729.3895808655
28	6364	18	6745.8921863264
28	7274	19	6763.6879514609
28	8337	20	6781.9644824763
28	9400	21	6800.3007439438
28	10628	22	6818.8770689785
28	12033	23	6837.1315314548
28	13438	24	6855.7405970119
28	14843	25	6874.3605570768
28	16437	26	6893.4090509424
28	18031	27	6911.9946990875
28	19625	28	6931.1161682348
28	21420	29	6949.108285944
28	23014	30	6967.9081263832
29	1186	9	3531.8428342596
29	1511	10	3532.7435855418
29	1929	11	3534.5776349117
29	2347	12	3537.2290394116
29	2765	13	3540.9047727559
29	3405	14	3545.2782333568
29	4045	15	3550.3428472503
29	4685	16	3556.2576669921
29	5454	17	3563.0211237314
29	6364	18	3570.3460847831
29	7274	19	3578.2476633679
29	8337	20	3586.362896724
29	9400	21	3594.680888814
29	10628	22	3603.1242549633
29	12033	23	3611.4213271914
29	13438	24	3619.8795746596
29	14843	25	3628.5641127889
29	16437	26	3637.4220199271
29	18031	27	3645.8305034873
29	19625	28	3654.7649535687
29	21420	29	3663.6906207265
29	23014	30	3672.5187071145
30	1186	9	2.0610205066623
30	1511	10	1.682159679709
30	1929	11	2.3002126050647
30	2347	12	1.7752838414861
30	2765	13	1.9317888066405
30	3405	14	2.0805281540379
30	4045	15	2.2094326386927
30	4685	16	2.5329000208527
30	5454	17	-3.2777142801881
30	6364	18	-2.4795906143017
30	7274	19	-1.1981807642383
30	8337	20	0.85750560234301
30	9400	21	-0.5091593883466
30	10628	22	0.17743423767388
30	12033	23	-0.31235045541544
30	13438	24	0.33951029521413
30	14843	25	1.9275127517292
30	16437	26	1.610137716285
30	18031	27	1.3957643196452
30	19625	28	2.3995883058989
30	21420	29	2.317860931973
30	23014	30	1.3403829308925
31	1186	9	2.9927142691595
31	1511	10	3.4496821467333
31	1929	11	5.6253221745251
31	2347	12	5.5646851432508
31	2765	13	6.9600084652616
31	3405	14	8.5885102093344
31	4045	15	10.408041245386
31	4685	16	13.47502918402
31	5454	17	0.973
31	6364	18	0.973
31	7274	19	0.973
31	8337	20	4.287867671695
31	9400	21	0.973
31	10628	22	2.3009141918479
31	12033	23	0.973
31	13438	24	2.7558355195605
31	14843	25	8.2513474894505
31	16437	26	8.0135980019148
31	18031	27	7.8670958841755
31	19625	28	13.568533373858
31	21420	29	14.861547613564
31	23014	30	10.540922303447
32	1511	10	7097.6464535605
32	1929	11	7095.4727765376
32	2347	12	7091.1370053319
32	2765	13	7084.3515466174
32	3405	14	7075.6260530157
32	4045	15	7065.4641784521
32	4685	16	7053.3225671456
32	5454	17	7037.7421668224
32	6364	18	7021.5081057835
32	7274	19	7006.6317530436
32	8337	20	6995.6025442615
32	9400	21	6984.9160400075
32	10628	22	6973.1924526014
32	12033	23	6962.5089462186
32	13438	24	6951.3655263182
32	14843	25	6940.1822896731
32	16437	26	6928.8657688936
32	18031	27	6915.5898851218
32	19625	28	6900.1193507006
32	21420	29	6888.2380495215
32	23014	30	6875.1763612173
33	1511	10	3713.5235541713
33	1929	11	3712.8592132045
33	2347	12	3711.5340713347
33	2765	13	3709.4602314058
33	3405	14	3705.5640437896
33	4045	15	3700.9409951833
33	4685	16	3695.4172840926
33	5454	17	3691.8404563127
33	6364	18	3684.3241475909
33	7274	19	3677.4627012174
33	8337	20	3672.1877410283
33	9400	21	3667.0084617179
33	10628	22	3661.3265537476
33	12033	23	3656.1487273737
33	13438	24	3650.7480011151
33	14843	25	3645.3279774289
33	16437	26	3640.075820394
33	18031	27	3633.733141162
33	19625	28	3626.3419467927
33	21420	29	3622.3841687726
33	23014	30	3616.7567176215
34	1511	10	2.2709876091918
34	1929	11	4.6240327115869
34	2347	12	6.684760694229
34	2765	13	9.2673139021499
34	3405	14	11.024299288588
34	4045	15	12.486164134019
34	4685	16	14.58223897689
34	5454	17	16.674446016387
34	6364	18	18.0587637858
34	7274	19	19.571344412188
34	8337	20	19.997197140058
34	9400	21	20.162845525824
34	10628	22	20.411307675488
34	12033	23	20.057651303945
34	13438	24	20.44728233002
34	14843	25	20.552862978706
34	16437	26	20.974867096756
34	18031	27	20.397821326184
34	19625	28	21.163056146822
34	21420	29	20.109003006763
34	23014	30	20.801210805288
35	1929	11	2.3530451023951
35	2347	12	2.0607279826421
35	2765	13	2.5825532079209
35	3405	14	1.7569853864377
35	4045	15	1.4618648454314
35	4685	16	2.0960748428712
35	5454	17	2.0922070394969
35	6364	18	1.3843177694129
35	7274	19	1.5125806263881
35	8337	20	0.42585272786987
35	9400	21	0.16564838576596
35	10628	22	0.24846214966383
35	12033	23	-0.35365637154318
35	13438	24	0.38963102607522
35	14843	25	0.10558064868674
35	16437	26	0.42200411804952
35	18031	27	-0.57704577057157
35	19625	28	0.76523482063785
35	21420	29	-1.0540531400591
35	23014	30	0.69220779852476
36	1929	11	3.9644111627569
36	2347	12	4.7799569429764
36	2765	13	7.3985129312971
36	3405	14	6.4336425210277
36	4045	15	6.2911549326036
36	4685	16	9.4661717891986
36	5454	17	10.750275222199
36	6364	18	8.549977463952
36	7274	19	9.8810253735076
36	8337	20	4.8657076528982
36	9400	21	3.6448124958472
36	10628	22	4.1024284165847
36	12033	23	1.1134840944792
36	13438	24	4.806130260522
36	14843	25	3.4264646638814
36	16437	26	5.1074871466098
36	18031	27	0.973
36	19625	28	6.9094345479388
36	21420	29	0.973
36	23014	30	6.415006247011
37	1929	11	2.2793558065081
37	2347	12	4.5465656438377
37	2765	13	7.1153508812655
37	3405	14	9.5870071406709
37	4045	15	11.195612857491
37	4685	16	13.37674252938
37	5454	17	15.735600156733
37	6364	18	17.965280637564
37	7274	19	16.37610285684
37	8337	20	12.219054127847
37	9400	21	11.880355598465
37	10628	22	13.033297321866
37	12033	23	11.877022817721
37	13438	24	12.388315940615
37	14843	25	12.432580844838
37	16437	26	12.755081786624
37	18031	27	14.712099643833
37	19625	28	17.144172686375
37	21420	29	12.644172686375
37	23014	30	14.233159553063
38	2347	12	2.2672098373296
38	2765	13	2.5687852374278
38	3405	14	2.4716562594054
38	4045	15	1.6086057168199
38	4685	16	2.1811296718894
38	5454	17	2.3588576273527
38	6364	18	2.2296804808313
38	7274	19	-1.5891777807241
38	8337	20	-4.1570487289928
38	9400	21	-0.33869852938223
38	10628	22	1.1529417234007
38	12033	23	-1.1562745041447
38	13438	24	0.51129312289413
38	14843	25	0.044264904223382
38	16437	26	0.32250094178598
38	18031	27	1.9570178572088
38	19625	28	2.4320730425417
38	21420	29	-4.5
38	23014	30	1.5889868666884
39	2347	12	3.8222408160617
39	2765	13	5.8914746676912
39	3405	14	7.3645612208624
39	4045	15	6.1199573542418
39	4685	16	9.0079267270075
39	5454	17	11.174466896709
39	6364	18	12.165984617522
39	7274	19	0.973
39	8337	20	0.973
39	9400	21	0.973
39	10628	22	5.5646645549365
39	12033	23	0.973
39	13438	24	3.4097553718084
39	14843	25	2.0199003000331
39	16437	26	2.9083650270352
39	18031	27	9.0527143797611
39	19625	28	12.45124481716
39	21420	29	0.973
39	23014	30	7.5135014703815
40	2765	13	7097.6464535605
40	3405	14	7095.6064049876
40	4045	15	7091.8813877953
40	4685	16	7086.58616576
40	5454	17	7079.9632693865
40	6364	18	7071.4517737317
40	7274	19	7061.4026607416
40	8337	20	7049.5946941865
40	9400	21	7035.5893952788
40	10628	22	7019.7493267295
40	12033	23	7006.638833244
40	13438	24	6994.5554198522
40	14843	25	6982.3198345114
40	16437	26	6969.7093716388
40	18031	27	6957.6037489119
40	19625	28	6944.9516739823
40	21420	29	6932.593329361
40	23014	30	6917.8753083815
41	2765	13	3713.5235541713
41	3405	14	3712.9000540713
41	4045	15	3711.7615769669
41	4685	16	3710.1431981143
41	5454	17	3707.5372193069
41	6364	18	3703.6649949571
41	7274	19	3699.0932461608
41	8337	20	3693.7213235903
41	9400	21	3687.3165168108
41	10628	22	3679.9884113739
41	12033	23	3673.9828256616
41	13438	24	3668.125473158
41	14843	25	3662.1943563364
41	16437	26	3656.0815201796
41	18031	27	3650.2134018517
41	19625	28	3644.0803945331
41	21420	29	3638.3073896453
41	23014	30	3631.2757157012
42	2765	13	6658.3305918536
42	3405	14	6659.7040776026
42	4045	15	6662.7371117812
42	4685	16	6667.1923202388
42	5454	17	6673.0476086908
42	6364	18	6680.9649380067
42	7274	19	6690.7583643933
42	8337	20	6702.4218197481
42	9400	21	6715.9767102007
42	10628	22	6731.529553832
42	12033	23	6748.7059829308
42	13438	24	6768.1821286864
42	14843	25	6788.9654874906
42	16437	26	6811.881055616
42	18031	27	6836.7045528862
42	19625	28	6863.38119328
42	21420	29	6889.1290461838
42	23014	30	6913.0995539868
43	2765	13	3531.8428342596
43	3405	14	3532.4364203092
43	4045	15	3533.7472215153
43	4685	16	3535.672650731
43	5454	17	3538.2031593613
43	6364	18	3541.6248302709
43	7274	19	3545.874003738
43	8337	20	3551.0510260212
43	9400	21	3557.0675938209
43	10628	22	3563.970986992
43	12033	23	3571.5952975193
43	13438	24	3580.2431895921
43	14843	25	3589.5287545543
43	16437	26	3599.9444062959
43	18031	27	3611.2272556306
43	19625	28	3623.352401054
43	21420	29	3635.4541715533
43	23014	30	3646.330359838
44	3405	14	2.1392306727823
44	4045	15	3.9061182857724
44	4685	16	5.5526625922183
44	5454	17	7.1518389946083
44	6364	18	9.3773456454976
44	7274	19	11.07138037323
44	8337	20	13.009157056338
44	9400	21	15.44390812018
44	10628	22	17.569316764455
44	12033	23	14.451319489477
44	13438	24	13.423175541254
44	14843	25	13.592219727522
44	16437	26	14.008662230394
44	18031	27	13.447847361572
44	19625	28	14.054888071365
44	21420	29	13.962731022516
44	23014	30	16.310250596737
45	3405	14	1.4965580292046
45	4045	15	3.3048116124235
45	4685	16	4.8544209459098
45	5454	17	6.3799562190659
45	6364	18	8.6267678904347
45	7274	19	10.677675930643
45	8337	20	12.763292782893
45	9400	21	14.833085927367
45	10628	22	17.019441566407
45	12033	23	18.895876542991
45	13438	24	21.309751061443
45	14843	25	22.787794514932
45	16437	26	25.179184294632
45	18031	27	27.275580041693
45	19625	28	29.311777965198
45	21420	29	28.426820788787
45	23014	30	26.315973355065
46	4045	15	1.7668876129901
46	4685	16	1.6465443064459
46	5454	17	1.59917640239
46	6364	18	2.2255066508893
46	7274	19	1.6940347277327
46	8337	20	1.937776683108
46	9400	21	2.4347510638414
46	10628	22	2.1254086442757
46	12033	23	-3.1179972749781
46	13438	24	-1.0281439482234
46	14843	25	0.169044186268
46	16437	26	0.41644250287209
46	18031	27	-0.56081486882176
46	19625	28	0.60704070979264
46	21420	29	-0.092157048848458
46	23014	30	2.3475195742212
47	4045	15	2.9672397548378
47	4685	16	3.5970676104973
47	5454	17	4.2451272145526
47	6364	18	6.6680503238763
47	7274	19	6.2894768643404
47	8337	20	8.0162780504315
47	9400	21	11.257399600408
47	10628	22	11.457959994484
47	12033	23	0.973
47	13438	24	0.973
47	14843	25	2.5514073645874
47	16437	26	3.4456826947288
47	18031	27	0.973
47	19625	28	4.1006739093721
47	21420	29	1.7249206256694
47	23014	30	11.5251917386
48	4045	15	1.8082535832189
48	4685	16	1.5496093334863
48	5454	17	1.5255352731561
48	6364	18	2.2468116713688
48	7274	19	2.0509080402087
48	8337	20	2.08561685225
48	9400	21	2.0697931444738
48	10628	22	2.1863556390395
48	12033	23	1.8764349765843
48	13438	24	2.4138745184522
48	14843	25	1.4780434534885
48	16437	26	2.3913897797
48	18031	27	2.0963957470609
48	19625	28	2.0361979235052
48	21420	29	-0.88495717641114
48	23014	30	-2.1108474337219
49	4045	15	2.7129593977572
49	4685	16	3.1676569738679
49	5454	17	3.7873752707102
49	6364	18	6.2566999861456
49	7274	19	7.0151948067172
49	8337	20	8.3330324245196
49	9400	21	9.5260762359356
49	10628	22	11.354177245611
49	12033	23	11.189912598316
49	13438	24	15.428735946058
49	14843	25	11.419638218631
49	16437	26	18.310715215905
49	18031	27	18.080792642434
49	19625	28	19.234463521074
49	21420	29	0.973
49	23014	30	0.973
50	4685	16	7097.6464535605
50	5454	17	7096.3040685982
50	6364	18	7092.8180965676
50	7274	19	7087.1917943361
50	8337	20	7080.4423436657
50	9400	21	7072.5829675114
50	10628	22	7062.3698409621
50	12033	23	7049.572647485
50	13438	24	7036.4035142458
50	14843	25	7021.3685421757
50	16437	26	7006.0103114849
50	18031	27	6990.722556099
50	19625	28	6975.122655887
50	21420	29	6959.6423638451
50	23014	30	6944.8005999527
51	4685	16	3713.5235541713
51	5454	17	3713.1132810193
51	6364	18	3712.0478632941
51	7274	19	3710.3282963923
51	8337	20	3707.7551696137
51	9400	21	3704.1796208555
51	10628	22	3699.5332556435
51	12033	23	3697.2313523981
51	13438	24	3691.2200305751
51	14843	25	3684.2595896087
51	16437	26	3677.2141245939
51	18031	27	3669.8226250723
51	19625	28	3662.2620385146
51	21420	29	3654.7594207842
51	23014	30	3647.5662696067
52	5454	17	6658.3305918536
52	6364	18	6659.7744473015
52	7274	19	6663.2673889837
52	8337	20	6668.9814998566
52	9400	21	6676.2290677413
52	10628	22	6685.2990400492
52	12033	23	6696.3269800692
52	13438	24	6709.2203340957
52	14843	25	6723.9816515055
52	16437	26	6739.9332189376
52	18031	27	6757.9844362299
52	19625	28	6777.5450601163
52	21420	29	6799.2862040562
52	23014	30	6821.8662528702
53	5454	17	3531.8428342596
53	6364	18	3532.4668323259
53	7274	19	3533.9763940059
53	8337	20	3536.4458892317
53	9400	21	3539.5781060698
53	10628	22	3543.4979203352
53	12033	23	3548.3457281596
53	13438	24	3554.0686618075
53	14843	25	3560.6207226537
53	16437	26	3567.7010961397
53	18031	27	3575.715161056
53	19625	28	3584.4005635154
53	21420	29	3594.2197571462
53	23014	30	3604.482907659
54	5454	17	1.4076483884361
54	6364	18	3.6554513414158
54	7274	19	5.8998390860623
54	8337	20	7.2591026006965
54	9400	21	8.6588879024144
54	10628	22	11.252078560437
54	12033	23	12.738250769395
54	13438	24	14.436340893898
54	14843	25	16.64767160425
54	16437	26	16.881615799496
54	18031	27	16.984945623151
54	19625	28	17.342655503953
54	21420	29	17.209685211855
54	23014	30	16.499823380907
55	6364	18	2.2478029529797
55	7274	19	2.2443877446465
55	8337	20	1.3592635146342
55	9400	21	1.3997853017179
55	10628	22	2.5931906580226
55	12033	23	1.4861722089583
55	13438	24	1.6980901245028
55	14843	25	2.2113307103515
55	16437	26	0.23394419524627
55	18031	27	0.10332982365508
55	19625	28	0.35770988080185
55	21420	29	-0.13297029209789
55	23014	30	-0.70986183094792
56	6364	18	3.2710842203658
56	7274	19	4.6047872633673
56	8337	20	3.8734704726244
56	9400	21	4.5087389516882
56	10628	22	8.8164920229633
56	12033	23	6.4778629470296
56	13438	24	7.9922687266408
56	14843	25	11.211358359947
56	16437	26	3.3206055748674
56	18031	27	2.8049739353048
56	19625	28	3.9235452124814
56	21420	29	1.8595560356144
56	23014	30	0.973
57	6364	18	1.5732332607731
57	7274	19	3.8059294927632
57	8337	20	6.2261283108732
57	9400	21	7.8969919548603
57	10628	22	9.8826943721855
57	12033	23	12.048936760216
57	13438	24	14.109168114257
57	14843	25	16.153276214632
57	16437	26	17.455764118792
57	18031	27	19.851749358722
57	19625	28	21.40218248805
57	21420	29	23.883582889172
57	23014	30	24.810522146359
58	7274	19	7097.6464535605
58	8337	20	7096.1661172417
58	9400	21	7093.1327306756
58	10628	22	7088.2562057056
58	12033	23	7081.9388446648
58	13438	24	7073.6255831711
58	14843	25	7063.5989658734
58	16437	26	7052.2483907828
58	18031	27	7038.7513082861
58	19625	28	7024.0729468585
58	21420	29	7008.3280765318
58	23014	30	6996.7455482159
59	7274	19	3713.5235541713
59	8337	20	3713.0711189425
59	9400	21	3712.144024925
59	10628	22	3710.6536124677
59	12033	23	3708.4359885724
59	13438	24	3704.653948977
59	14843	25	3700.0924343829
59	16437	26	3694.928597728
59	18031	27	3688.7780875831
59	19625	28	3681.9892554942
59	21420	29	3674.7029929924
59	23014	30	3669.1871229947
60	7274	19	2.2326962319901
60	8337	20	2.4201988181099
60	9400	21	1.6708636439871
60	10628	22	1.9857024173252
60	12033	23	2.1662423880305
60	13438	24	2.060231354041
60	14843	25	2.0441081003752
60	16437	26	1.3024879041594
60	18031	27	2.3959852399305
60	19625	28	1.5504331293283
60	21420	29	2.4814004011219
60	23014	30	0.9269392571868
61	7274	19	3.3465845681276
61	8337	20	5.0641453058906
61	9400	21	4.7163912926544
61	10628	22	6.405312789528
61	12033	23	8.1431534687253
61	13438	24	9.0555144325793
61	14843	25	10.23618623389
61	16437	26	7.9227712782756
61	18031	27	14.25341080033
61	19625	28	11.045082427153
61	21420	29	17.803496379822
61	23014	30	9.2601892875753
62	8337	20	1.5523065976566
62	9400	21	3.1808622945333
62	10628	22	5.1136095144786
62	12033	23	6.7265272651566
62	13438	24	9.158945692936
62	14843	25	11.046596258692
62	16437	26	12.505236472702
62	18031	27	14.874340793514
62	19625	28	16.297192988405
62	21420	29	17.353437165202
62	23014	30	12.853437165202
63	9400	21	6658.3305918536
63	10628	22	6659.6889639137
63	12033	23	6662.9734929048
63	13438	24	6667.5213313892
63	14843	25	6674.3584860135
63	16437	26	6682.487440183
63	18031	27	6692.9735408598
63	19625	28	6705.1617207353
63	21420	29	6719.482336432
63	23014	30	6735.1568072012
64	9400	21	3531.8428342596
64	10628	22	3532.4298885524
64	12033	23	3533.8493795009
64	13438	24	3535.8148410881
64	14843	25	3538.7696876213
64	16437	26	3542.2828174782
64	18031	27	3546.8572473463
64	19625	28	3552.2671774989
64	21420	29	3558.6236254225
64	23014	30	3565.5810048596
65	9400	21	1.6285556968767
65	10628	22	1.9327472199453
65	12033	23	1.612917750678
65	13438	24	2.4324184277793
65	14843	25	1.8876505657565
65	16437	26	1.4586402140092
65	18031	27	2.369104320812
65	19625	28	1.4228521948913
65	21420	29	1.0562441767973
65	23014	30	-4.5
66	9400	21	2.5148488318791
66	10628	22	3.7509118496916
66	12033	23	4.077292939061
66	13438	24	6.9918947280428
66	14843	25	6.7927726545431
66	16437	26	6.2899013892814
66	18031	27	10.624113279464
66	19625	28	7.8844672278825
66	21420	29	6.8472890510664
66	23014	30	0.973
67	10628	22	7097.6464535605
67	12033	23	7096.0297945754
67	13438	24	7092.6192817277
67	14843	25	7087.8887513908
67	16437	26	7081.4369979308
67	18031	27	7073.8928828205
67	19625	28	7064.3351091751
67	21420	29	7052.4299145818
67	23014	30	7037.2752216301
68	10628	22	3713.5235541713
68	12033	23	3713.0294546423
68	13438	24	3711.9870995093
68	14843	25	3710.5413073956
68	16437	26	3708.2076781529
68	18031	27	3704.7755544213
68	19625	28	3700.4273358072
68	21420	29	3695.0111802615
68	23014	30	3691.6240410751
69	10628	22	1.4800900661852
69	12033	23	3.5788418170996
69	13438	24	4.955351159838
69	14843	25	7.4498032886535
69	16437	26	8.8573555568699
69	18031	27	11.442811330035
69	19625	28	13.337497637747
69	21420	29	15.671017327881
69	23014	30	17.152537868056
70	12033	23	2.0987517509144
70	13438	24	1.3765093427384
70	14843	25	2.4944521288155
70	16437	26	1.4075522682164
70	18031	27	2.5854557731654
70	19625	28	1.8946863077115
70	21420	29	2.3335196901346
70	23014	30	1.4815205401741
71	12033	23	3.0970530380925
71	13438	24	3.0041689158793
71	14843	25	5.986119382025
71	16437	26	4.6060644344829
71	18031	27	8.9303690236701
71	19625	28	8.0627384511087
71	21420	29	11.034529289627
71	23014	30	8.5278757091062
72	12033	23	1.6952569337795
72	13438	24	3.5763235202525
72	14843	25	4.9605169845046
72	16437	26	6.8941063932376
72	18031	27	8.3115562585182
72	19625	28	10.530058489065
72	21420	29	13.116275823466
72	23014	30	15.265378031065
73	13438	24	1.881066586473
73	14843	25	1.3841934642522
73	16437	26	1.933589408733
73	18031	27	1.4174498652807
73	19625	28	2.2185022305464
73	21420	29	2.5862173344009
73	23014	30	2.1491022075992
74	13438	24	2.9080273401061
74	14843	25	3.015353259656
74	16437	26	4.685460725471
74	18031	27	4.4032641013692
74	19625	28	7.3558221079062
74	21420	29	10.126271420551
74	23014	30	10.081475577547
75	14843	25	7097.6464535605
75	16437	26	7095.7639512877
75	18031	27	7092.0675612597
75	19625	28	7085.927116968
75	21420	29	7078.1569895524
75	23014	30	7068.9011200225
76	14843	25	3713.5235541713
76	16437	26	3712.9482049512
76	18031	27	3711.8184771678
76	19625	28	3709.9417730143
76	21420	29	3706.7154694007
76	23014	30	3702.5045992051
77	14843	25	6658.3305918536
77	16437	26	6659.8771059164
77	18031	27	6663.2798952333
77	19625	28	6668.8158066024
77	21420	29	6676.5294770382
77	23014	30	6686.0151300971
78	14843	25	3531.8428342596
78	16437	26	3532.5111988013
78	18031	27	3533.9817988929
78	19625	28	3536.3742807682
78	21420	29	3539.707935424
78	23014	30	3543.8073964713
79	16437	26	1.9740248624468
79	18031	27	3.8760993398028
79	19625	28	6.4389774575597
79	21420	29	8.4507763759
79	23014	30	10.19744253559
80	16437	26	1.6850906823296
80	18031	27	3.7076989532448
80	19625	28	6.0319610991515
80	21420	29	8.4048599947942
80	23014	30	10.335622526705
81	18031	27	1.9020744773559
81	19625	28	2.5628781177569
81	21420	29	2.0117989183404
81	23014	30	1.7466661596904
82	18031	27	3.0791664637234
82	19625	28	5.4223357718832
82	21420	29	5.6707220461723
82	23014	30	5.9924623107079
83	18031	27	2.0226082709152
83	19625	28	2.3242621459067
83	21420	29	2.3728988956427
83	23014	30	1.930762531911
84	18031	27	3.1008805746724
84	19625	28	4.8000421988578
84	21420	29	6.3767746717969
84	23014	30	6.5198937917936
85	19625	28	7097.6464535605
85	21420	29	7096.2626705941
85	23014	30	7093.4236166173
86	19625	28	3713.5235541713
86	21420	29	3713.1006285462
86	23014	30	3712.2329284031
87	21420	29	6658.3305918536
87	23014	30	6659.6703173398
88	21420	29	3531.8428342596
88	23014	30	3532.4218299714
89	21420	29	1.4510590608465
89	23014	30	2.9770817369223
90	23014	30	1.5260226760758
91	23014	30	2.3509376365356
92	23014	30	1.45977265127

