file 6182 1751272479                                            
version 3
run General-0-20250630-10:33:24-19740
attr configname General
attr datetime 20250630-10:33:24
attr datetimef 20250630-103324
attr experiment General
attr inifile omnetpp.ini
attr iterationvars ""
attr iterationvarsd ""
attr iterationvarsf ""
attr measurement ""
attr network BasicProjectNetwork
attr processid 19740
attr repetition 0
attr replication #0
attr resultdir results
attr runnumber 0
attr seedset 0
config image-path ../../../../../veins-veins-5.3.1/images
config cmdenv-express-mode true
config cmdenv-autoflush true
config cmdenv-status-frequency 1s
config **.cmdenv-log-level debug
config image-path ../../images
config network BasicProjectNetwork
config debug-on-errors true
config print-undisposed true
config sim-time-limit 30s
config **.scalar-recording true
config **.vector-recording true
config *.playgroundSizeX 8000m
config *.playgroundSizeY 10000m
config *.playgroundSizeZ 50m
config *.annotations.draw true
config *.obstacles.debug false
config *.manager.updateInterval 1s
config *.manager.host "\"localhost\""
config *.manager.port 9999
config *.manager.autoShutdown true
config *.manager.launchConfig "xmldoc(\"launchd.xml\")"
config *.manager.trafficLightModuleType "\"org.car2x.veins.nodes.TrafficLight\""
config *.manager.trafficLightFilter "\"gneJ1\""
config *.tls[*].mobility.x 0
config *.tls[*].mobility.y 0
config *.tls[*].mobility.z 3
config *.tls[*].@display "\"p=1000,1000;i=misc/trafficlight\""
config *.tls[*].applType "\"org.car2x.veins.modules.application.traci.TraCIDemoTrafficLightApp\""
config *.tls[*].logicType "\"org.car2x.veins.modules.world.traci.trafficLight.logics.TraCITrafficLightSimpleLogic\""
config *.rsu[0].mobility.x 2000
config *.rsu[0].mobility.y 2000
config *.rsu[0].mobility.z 3
config *.rsu[*].applType "\"TraCIDemoRSU11p\""
config *.rsu[*].appl.headerLength "80 bit"
config *.rsu[*].appl.sendBeacons true
config *.rsu[*].appl.dataOnSch false
config *.rsu[*].appl.beaconInterval 1s
config *.rsu[*].appl.beaconUserPriority 7
config *.rsu[*].appl.dataUserPriority 5
config *.rsu[*].nic.phy80211p.antennaOffsetZ "0 m"
config *.connectionManager.sendDirect true
config *.connectionManager.maxInterfDist 2600m
config *.connectionManager.drawMaxIntfDist false
config *.**.nic.mac1609_4.useServiceChannel false
config *.**.nic.mac16094.useServiceChannel false
config *.**.nic.mac1609_4.txPower 20mW
config *.**.nic.mac1609_4.bitrate 6Mbps
config *.**.nic.phy80211p.minPowerLevel -110dBm
config *.**.nic.phy80211p.useNoiseFloor true
config *.**.nic.phy80211p.noiseFloor -98dBm
config *.**.nic.phy80211p.decider "xmldoc(\"config.xml\")"
config *.**.nic.phy80211p.analogueModels "xmldoc(\"config.xml\")"
config *.**.nic.phy80211p.usePropagationDelay true
config *.**.nic.phy80211p.antenna "xmldoc(\"antenna.xml\", \"/root/Antenna[@id='monopole']\")"
config *.node[*].nic.phy80211p.antennaOffsetY "0 m"
config *.node[*].nic.phy80211p.antennaOffsetZ "1.895 m"
config *.node[*].applType "\"MyVeinsApp\""
config *.node[*].appl.headerLength "80 bit"
config *.node[*].appl.sendBeacons true
config *.node[*].appl.dataOnSch false
config *.node[*].appl.beaconInterval 1s
config *.node[*].veinsmobility.x 0
config *.node[*].veinsmobility.y 0
config *.node[*].veinsmobility.z 0
config *.node[*].veinsmobility.setHostSpeed false
config *.node[*0].veinsmobility.accidentCount 0
config *.node[*0].veinsmobility.accidentStart 5s
config *.node[*0].veinsmobility.accidentDuration 50s
config **.node[*].nic.mac1609_4.useAcks true
config **.node[*].nic.mac1609_4.pcapRecording true
config **.node[*].nic.mac1609_4.pcapFile "\"results/vehicle-network.pcap\""
config *.node[*].veinsmobility.collectStatistics true
config *.rsu[*].applLayer.collectStatistics true
config *.node[*].applLayer.packetReceived.vector-recording true
config *.node[*].applLayer.rssi.vector-recording true

vector 0 BasicProjectNetwork.node[0].veinsmobility posx ETV
vector 1 BasicProjectNetwork.node[0].veinsmobility posy ETV
vector 2 BasicProjectNetwork.node[1].veinsmobility posx ETV
vector 3 BasicProjectNetwork.node[1].veinsmobility posy ETV
vector 4 BasicProjectNetwork.node[2].veinsmobility posx ETV
vector 5 BasicProjectNetwork.node[2].veinsmobility posy ETV
vector 6 BasicProjectNetwork.node[0].veinsmobility speed ETV
vector 7 BasicProjectNetwork.node[1].veinsmobility speed ETV
vector 8 BasicProjectNetwork.node[2].veinsmobility speed ETV
vector 9 BasicProjectNetwork.node[0].veinsmobility acceleration ETV
vector 10 BasicProjectNetwork.node[0].veinsmobility co2emission ETV
vector 11 BasicProjectNetwork.node[1].veinsmobility acceleration ETV
vector 12 BasicProjectNetwork.node[1].veinsmobility co2emission ETV
vector 13 BasicProjectNetwork.node[2].veinsmobility acceleration ETV
vector 14 BasicProjectNetwork.node[2].veinsmobility co2emission ETV
vector 15 BasicProjectNetwork.node[3].veinsmobility posx ETV
vector 16 BasicProjectNetwork.node[3].veinsmobility posy ETV
0	5010 98 11 230 1 4 4 7086.5117955392 7097.6464535605 28371.011367574 201228642.38796
1	5108 98 11 230 1 4 4 3710.1204683417 3713.5235541713 14848.111678025 55116611.721958
2	5206 98 11 230 1 4 4 6658.3305918536 6671.1118132039 26655.276737897 177626039.52044
3	5304 98 11 230 1 4 4 3531.8428342596 3537.3665571638 14136.859464641 49962716.629424
4	5402 98 11 230 1 4 4 6721.5588132752 6729.4449163004 26898.80452565 180886458.08178
5	5500 97 11 230 1 4 4 3785.0088506169 3792.796493463 15158.77363215 57447140.447665
6	5597 73 84 230 2 4 3 2.4524649926694 5.278352229204 11.675997467153 49.440033963554
7	5670 74 84 230 2 4 3 2.5498698164476 6.4812462076312 13.926492829318 72.47310255004
8	5744 74 84 230 2 4 3 1.5147052048706 6.0161660460755 11.08327223754 51.108138521169
9	5818 50 157 230 3 4 2 1.3331719839247 1.4927152526099 2.8258872365346 4.005546364096
10	5868 52 157 230 3 4 2 2.7252443836097 3.0741182330645 5.7993626166741 16.877159861255
11	5920 52 157 230 3 4 2 1.5858694023918 2.3455069887917 3.9313763911836 8.0163847959136
12	5972 52 157 230 3 4 2 3.9249027333988 4.1241863887608 8.0490891221596 32.413774835881
13	6024 52 157 230 3 4 2 2.0376957817236 2.4637650594814 4.501460841205 10.222342367175
14	6076 52 157 230 3 4 2 3.0300388559467 4.9925385572515 8.0225774131982 34.10657671419
15	6128 26 230 230 4 4 1 7097.6464535605 7097.6464535605 7097.6464535605 50376585.17974
16	6154 26 230 230 4 4 1 3713.5235541713 3713.5235541713 3713.5235541713 13790257.187385

