file 25680 1751361755                                           
version 3
run General-0-20250701-11:10:06-20564
attr configname General
attr datetime 20250701-11:10:06
attr datetimef 20250701-111006
attr experiment General
attr inifile omnetpp.ini
attr iterationvars ""
attr iterationvarsd ""
attr iterationvarsf ""
attr measurement ""
attr network BasicProjectNetwork
attr processid 20564
attr repetition 0
attr replication #0
attr resultdir results
attr runnumber 0
attr seedset 0
config image-path ../../../../../veins-veins-5.3.1/images
config cmdenv-express-mode true
config cmdenv-autoflush true
config cmdenv-status-frequency 1s
config **.cmdenv-log-level debug
config image-path ../../images
config network BasicProjectNetwork
config debug-on-errors true
config print-undisposed true
config sim-time-limit 30s
config **.scalar-recording true
config **.vector-recording true
config *.playgroundSizeX 8000m
config *.playgroundSizeY 10000m
config *.playgroundSizeZ 50m
config *.annotations.draw true
config *.obstacles.debug false
config *.manager.updateInterval 1s
config *.manager.host "\"localhost\""
config *.manager.port 9999
config *.manager.autoShutdown true
config *.manager.launchConfig "xmldoc(\"launchd.xml\")"
config *.manager.trafficLightModuleType "\"org.car2x.veins.nodes.TrafficLight\""
config *.manager.trafficLightFilter "\"gneJ1\""
config *.tls[*].mobility.x 0
config *.tls[*].mobility.y 0
config *.tls[*].mobility.z 3
config *.tls[*].@display "\"p=1000,1000;i=misc/trafficlight\""
config *.tls[*].applType "\"org.car2x.veins.modules.application.traci.TraCIDemoTrafficLightApp\""
config *.tls[*].logicType "\"org.car2x.veins.modules.world.traci.trafficLight.logics.TraCITrafficLightSimpleLogic\""
config *.rsu[0].mobility.x 2000
config *.rsu[0].mobility.y 2000
config *.rsu[0].mobility.z 3
config *.rsu[*].applType "\"TraCIDemoRSU11p\""
config *.rsu[*].appl.headerLength "80 bit"
config *.rsu[*].appl.sendBeacons true
config *.rsu[*].appl.dataOnSch false
config *.rsu[*].appl.beaconInterval 1s
config *.rsu[*].appl.beaconUserPriority 7
config *.rsu[*].appl.dataUserPriority 5
config *.rsu[*].nic.phy80211p.antennaOffsetZ "0 m"
config *.connectionManager.sendDirect true
config *.connectionManager.maxInterfDist 2600m
config *.connectionManager.drawMaxIntfDist false
config *.**.nic.mac1609_4.useServiceChannel false
config *.**.nic.mac16094.useServiceChannel false
config *.**.nic.mac1609_4.txPower 20mW
config *.**.nic.mac1609_4.bitrate 6Mbps
config *.**.nic.phy80211p.minPowerLevel -110dBm
config *.**.nic.phy80211p.useNoiseFloor true
config *.**.nic.phy80211p.noiseFloor -98dBm
config *.**.nic.phy80211p.decider "xmldoc(\"config.xml\")"
config *.**.nic.phy80211p.analogueModels "xmldoc(\"config.xml\")"
config *.**.nic.phy80211p.usePropagationDelay true
config *.**.nic.phy80211p.antenna "xmldoc(\"antenna.xml\", \"/root/Antenna[@id='monopole']\")"
config *.node[*].nic.phy80211p.antennaOffsetY "0 m"
config *.node[*].nic.phy80211p.antennaOffsetZ "1.895 m"
config *.node[*].applType "\"MyVeinsApp\""
config *.node[*].appl.headerLength "80 bit"
config *.node[*].appl.sendBeacons true
config *.node[*].appl.dataOnSch false
config *.node[*].appl.beaconInterval 1s
config *.node[*].veinsmobility.x 0
config *.node[*].veinsmobility.y 0
config *.node[*].veinsmobility.z 0
config *.node[*].veinsmobility.setHostSpeed false
config *.node[*0].veinsmobility.accidentCount 0
config *.node[*0].veinsmobility.accidentStart 5s
config *.node[*0].veinsmobility.accidentDuration 50s
config **.node[*].nic.mac1609_4.useAcks true
config **.node[*].nic.mac1609_4.pcapRecording true
config **.node[*].nic.mac1609_4.pcapFile "\"results/vehicle-network.pcap\""
config *.node[*].veinsmobility.collectStatistics true
config *.rsu[*].applLayer.collectStatistics true
config *.node[*].applLayer.packetReceived.vector-recording true
config *.node[*].applLayer.rssi.vector-recording true

vector 0 BasicProjectNetwork.node[0].veinsmobility posx ETV
vector 1 BasicProjectNetwork.node[0].veinsmobility posy ETV
vector 2 BasicProjectNetwork.node[1].veinsmobility posx ETV
vector 3 BasicProjectNetwork.node[1].veinsmobility posy ETV
vector 4 BasicProjectNetwork.node[2].veinsmobility posx ETV
vector 5 BasicProjectNetwork.node[2].veinsmobility posy ETV
vector 6 BasicProjectNetwork.node[0].veinsmobility speed ETV
vector 7 BasicProjectNetwork.node[1].veinsmobility speed ETV
vector 8 BasicProjectNetwork.node[2].veinsmobility speed ETV
vector 9 BasicProjectNetwork.node[0].veinsmobility acceleration ETV
vector 10 BasicProjectNetwork.node[0].veinsmobility co2emission ETV
vector 11 BasicProjectNetwork.node[1].veinsmobility acceleration ETV
vector 12 BasicProjectNetwork.node[1].veinsmobility co2emission ETV
vector 13 BasicProjectNetwork.node[2].veinsmobility acceleration ETV
vector 14 BasicProjectNetwork.node[2].veinsmobility co2emission ETV
vector 15 BasicProjectNetwork.node[3].veinsmobility posx ETV
vector 16 BasicProjectNetwork.node[3].veinsmobility posy ETV
vector 17 BasicProjectNetwork.node[4].veinsmobility posx ETV
vector 18 BasicProjectNetwork.node[4].veinsmobility posy ETV
vector 19 BasicProjectNetwork.node[3].veinsmobility speed ETV
vector 20 BasicProjectNetwork.node[3].veinsmobility acceleration ETV
vector 21 BasicProjectNetwork.node[3].veinsmobility co2emission ETV
vector 22 BasicProjectNetwork.node[4].veinsmobility speed ETV
vector 23 BasicProjectNetwork.node[5].veinsmobility posx ETV
vector 24 BasicProjectNetwork.node[5].veinsmobility posy ETV
vector 25 BasicProjectNetwork.node[4].veinsmobility acceleration ETV
vector 26 BasicProjectNetwork.node[4].veinsmobility co2emission ETV
vector 27 BasicProjectNetwork.node[5].veinsmobility speed ETV
vector 28 BasicProjectNetwork.node[6].veinsmobility posx ETV
vector 29 BasicProjectNetwork.node[6].veinsmobility posy ETV
vector 30 BasicProjectNetwork.node[5].veinsmobility acceleration ETV
vector 31 BasicProjectNetwork.node[5].veinsmobility co2emission ETV
vector 32 BasicProjectNetwork.node[7].veinsmobility posx ETV
vector 33 BasicProjectNetwork.node[7].veinsmobility posy ETV
vector 34 BasicProjectNetwork.node[6].veinsmobility speed ETV
vector 35 BasicProjectNetwork.node[6].veinsmobility acceleration ETV
vector 36 BasicProjectNetwork.node[6].veinsmobility co2emission ETV
vector 37 BasicProjectNetwork.node[7].veinsmobility speed ETV
vector 38 BasicProjectNetwork.node[7].veinsmobility acceleration ETV
vector 39 BasicProjectNetwork.node[7].veinsmobility co2emission ETV
vector 40 BasicProjectNetwork.node[8].veinsmobility posx ETV
vector 41 BasicProjectNetwork.node[8].veinsmobility posy ETV
vector 42 BasicProjectNetwork.node[9].veinsmobility posx ETV
vector 43 BasicProjectNetwork.node[9].veinsmobility posy ETV
vector 44 BasicProjectNetwork.node[8].veinsmobility speed ETV
vector 45 BasicProjectNetwork.node[9].veinsmobility speed ETV
vector 46 BasicProjectNetwork.node[8].veinsmobility acceleration ETV
vector 47 BasicProjectNetwork.node[8].veinsmobility co2emission ETV
vector 48 BasicProjectNetwork.node[9].veinsmobility acceleration ETV
vector 49 BasicProjectNetwork.node[9].veinsmobility co2emission ETV
vector 50 BasicProjectNetwork.node[10].veinsmobility posx ETV
vector 51 BasicProjectNetwork.node[10].veinsmobility posy ETV
vector 52 BasicProjectNetwork.node[11].veinsmobility posx ETV
vector 53 BasicProjectNetwork.node[11].veinsmobility posy ETV
vector 54 BasicProjectNetwork.node[10].veinsmobility speed ETV
vector 55 BasicProjectNetwork.node[10].veinsmobility acceleration ETV
vector 56 BasicProjectNetwork.node[10].veinsmobility co2emission ETV
vector 57 BasicProjectNetwork.node[11].veinsmobility speed ETV
vector 58 BasicProjectNetwork.node[12].veinsmobility posx ETV
vector 59 BasicProjectNetwork.node[12].veinsmobility posy ETV
vector 60 BasicProjectNetwork.node[11].veinsmobility acceleration ETV
vector 61 BasicProjectNetwork.node[11].veinsmobility co2emission ETV
0	7956 494 11 7274 1 19 19 6897.9606039691 7097.6464535605 133317.03113578 935522432.23684
1	8450 493 11 7274 1 19 19 3621.7612770198 3713.5235541713 69876.513233901 257002614.45837
2	8943 491 11 7274 1 19 19 6658.3305918536 6960.1085355682 128658.80055395 871394563.13788
3	9434 491 11 7274 1 19 19 3531.8428342596 3669.1234855809 68064.907745309 243869917.60328
4	9925 494 11 7274 1 19 19 6721.5588132752 6865.6570390023 128887.05051006 874351562.8713
5	10419 492 11 7274 1 19 19 3651.650427444 3792.796493463 70907.714437354 264667228.6515
6	10911 468 84 7274 2 19 18 2.4524649926694 19.163915512797 220.54117583219 3118.3913214817
7	11379 469 84 7274 2 19 18 2.5498698164476 28.599913594398 331.80250852807 7478.0643209974
8	11848 470 84 7274 2 19 18 1.5147052048706 13.836102737296 201.80040344761 2506.1539959114
9	12318 452 157 7274 3 19 17 -2.7271707510647 2.208746208949 16.711450520127 43.176187960205
10	12770 432 157 7274 3 19 17 0.973 11.848400670215 92.947136412692 713.7817842532
11	13202 468 157 7274 3 19 17 -0.51650672648102 2.5819418966537 25.57662803495 52.366352564208
12	13670 461 157 7274 3 19 17 1.0150512747129 17.073765460302 152.55739998909 1717.7259858813
13	14131 480 157 7274 3 19 17 -0.87959220602643 2.558692760556 11.30121957359 29.192966553395
14	14611 422 157 7274 3 19 17 0.973 7.4011257101627 60.195356716769 294.64223723351
15	15033 436 230 7274 4 19 16 6943.9217327621 7097.6464535605 112535.40189387 791556160.8234
16	15469 435 230 7274 4 19 16 3647.1403212752 3713.5235541713 59008.275164219 217631614.36393
17	15904 410 348 7274 5 19 15 6658.3305918536 6840.7809225766 100881.9595634 678529196.98312
18	16314 410 348 7274 5 19 15 3531.8428342596 3613.0800592283 53421.715928594 190268766.92446
19	16724 408 348 7274 5 19 15 1.6526449820027 17.439499595971 167.85104720601 2180.9653299235
20	17132 391 523 7274 6 19 14 -3.9778847263368 2.5772626519203 11.750859233277 49.68120376743
21	17523 353 523 7274 6 19 14 0.973 11.91290348424 67.341178174111 479.01190988416
22	17876 384 523 7274 6 19 14 2.0565801601624 24.942827362241 199.88323375692 3552.2370795146
23	18260 356 698 7274 7 19 13 6986.329259103 7097.6464535605 91689.707571776 646711575.03082
24	18616 359 698 7274 7 19 13 3664.1378976528 3713.5235541713 48031.24701755 177465406.54979
25	18975 358 698 7274 7 19 13 1.3725404736586 2.4680079158628 22.886247202079 41.568582844838
26	19333 357 698 7274 7 19 13 3.294290562412 12.37018432796 109.89220453547 1031.5707832074
27	19690 332 942 7274 8 19 12 1.3868953013094 17.960221554455 122.23369917774 1524.9976183829
28	20022 307 1186 7274 9 19 11 6658.3305918536 6763.6879514609 73676.860629966 493493105.31077
29	20329 307 1186 7274 9 19 11 3531.8428342596 3578.2476633679 39040.791486362 138564673.70395
30	20636 309 1186 7274 9 19 11 -3.2777142801881 2.5329000208527 9.6178405944178 53.205075617896
31	20945 276 1186 7274 9 19 11 0.973 13.47502918402 59.982992837671 498.41476244925
32	21221 280 1511 7274 10 19 10 7006.6317530436 7097.6464535605 70628.90260631 498853486.7111
33	21501 280 1511 7274 10 19 10 3677.4627012174 3713.5235541713 37002.926698303 136923101.42978
34	21781 276 1511 7274 10 19 10 2.2709876091918 19.571344412188 115.24435153103 1634.3829804294
35	22057 252 1929 7274 11 19 9 1.3843177694129 2.5825532079209 17.300356802996 34.652144499631
36	22309 251 1929 7274 11 19 9 3.9644111627569 10.750275222199 67.515128339518 550.18652707469
37	22560 250 1929 7274 11 19 9 2.2793558065081 17.965280637564 98.17761851029 1311.2217995341
38	22810 225 2347 7274 12 19 8 -1.5891777807241 2.5687852374278 14.096747050332 38.254092076418
39	23035 214 2347 7274 12 19 8 0.973 12.165984617522 56.519612300096 495.97900366815
40	23249 194 2765 7274 13 19 7 7061.4026607416 7097.6464535605 49584.538115963 351233418.15874
41	23443 196 2765 7274 13 19 7 3699.0932461608 3713.5235541713 25958.623843749 96264478.024878
42	23639 196 2765 7274 13 19 7 6658.3305918536 6690.7583643933 46692.735012567 311459648.30884
43	23835 194 2765 7274 13 19 7 3531.8428342596 3545.874003738 24759.401120185 87575581.873823
44	24029 167 3405 7274 14 19 6 2.1392306727823 11.07138037323 39.198576564109 312.32500552552
45	24196 168 3405 7274 14 19 6 1.4965580292046 10.677675930643 35.340190627682 265.86459732095
46	24364 138 4045 7274 15 19 5 1.59917640239 2.2255066508893 8.9321497004479 16.212998667905
47	24502 140 4045 7274 15 19 5 2.9672397548378 6.6680503238763 23.766961768104 123.78492657373
48	24642 140 4045 7274 15 19 5 1.5255352731561 2.2468116713688 9.1811179014388 17.252714453287
49	24782 140 4045 7274 15 19 5 2.7129593977572 7.0151948067172 22.939886435198 120.09766373199
50	24922 112 4685 7274 16 19 4 7087.1917943361 7097.6464535605 28373.960413063 201270472.69445
51	25034 112 4685 7274 16 19 4 3710.3282963923 3713.5235541713 14849.012994877 55123302.831463
52	25146 84 5454 7274 17 19 3 6658.3305918536 6663.2673889837 19981.372428139 133085094.25644
53	25230 84 5454 7274 17 19 3 3531.8428342596 3533.9763940059 10598.286060591 37441224.880784
54	25314 84 5454 7274 17 19 3 1.4076483884361 5.8998390860623 10.962938815914 50.151899736353
55	25398 56 6364 7274 18 19 2 2.2443877446465 2.2478029529797 4.4921906976262 10.089894463744
56	25454 56 6364 7274 18 19 2 3.2710842203658 4.6047872633673 7.8758714837331 31.904057717596
57	25510 56 6364 7274 18 19 2 1.5732332607731 3.8059294927632 5.3791627535364 16.960162196688
58	25566 28 7274 7274 19 19 1 7097.6464535605 7097.6464535605 7097.6464535605 50376585.17974
59	25594 28 7274 7274 19 19 1 3713.5235541713 3713.5235541713 3713.5235541713 13790257.187385
60	25622 28 7274 7274 19 19 1 2.2326962319901 2.2326962319901 2.2326962319901 4.9849324643429
61	25650 28 7274 7274 19 19 1 3.3465845681276 3.3465845681276 3.3465845681276 11.19962827163

