version 3
run General-0-20250626-09:43:12-8060
attr configname General
attr datetime 20250626-09:43:12
attr datetimef 20250626-094312
attr experiment General
attr inifile omnetpp.ini
attr iterationvars ""
attr iterationvarsd ""
attr iterationvarsf ""
attr measurement ""
attr network BasicProjectNetwork
attr processid 8060
attr repetition 0
attr replication #0
attr resultdir results
attr runnumber 0
attr seedset 0
config image-path ../../../../../veins-veins-5.3.1/images
config cmdenv-express-mode true
config cmdenv-autoflush true
config cmdenv-status-frequency 1s
config **.cmdenv-log-level trace
config image-path ../../images
config network BasicProjectNetwork
config debug-on-errors true
config print-undisposed true
config sim-time-limit 30s
config **.scalar-recording true
config **.vector-recording true
config *.playgroundSizeX 8000m
config *.playgroundSizeY 10000m
config *.playgroundSizeZ 50m
config *.annotations.draw true
config *.obstacles.debug false
config *.manager.updateInterval 1s
config *.manager.host "\"localhost\""
config *.manager.port 9999
config *.manager.autoShutdown true
config *.manager.launchConfig "xmldoc(\"launchd.xml\")"
config *.manager.trafficLightModuleType "\"org.car2x.veins.nodes.TrafficLight\""
config *.manager.trafficLightFilter "\"gneJ1\""
config *.tls[*].mobility.x 0
config *.tls[*].mobility.y 0
config *.tls[*].mobility.z 3
config *.tls[*].@display "\"p=1000,1000;i=misc/trafficlight\""
config *.tls[*].applType "\"org.car2x.veins.modules.application.traci.TraCIDemoTrafficLightApp\""
config *.tls[*].logicType "\"org.car2x.veins.modules.world.traci.trafficLight.logics.TraCITrafficLightSimpleLogic\""
config *.rsu[0].mobility.x 2000
config *.rsu[0].mobility.y 2000
config *.rsu[0].mobility.z 3
config *.rsu[*].applType "\"TraCIDemoRSU11p\""
config *.rsu[*].appl.headerLength "80 bit"
config *.rsu[*].appl.sendBeacons true
config *.rsu[*].appl.dataOnSch false
config *.rsu[*].appl.beaconInterval 1s
config *.rsu[*].appl.beaconUserPriority 7
config *.rsu[*].appl.dataUserPriority 5
config *.rsu[*].nic.phy80211p.antennaOffsetZ "0 m"
config *.connectionManager.sendDirect true
config *.connectionManager.maxInterfDist 2600m
config *.connectionManager.drawMaxIntfDist false
config *.**.nic.mac1609_4.useServiceChannel false
config *.**.nic.mac16094.useServiceChannel false
config *.**.nic.mac1609_4.txPower 20mW
config *.**.nic.mac1609_4.bitrate 6Mbps
config *.**.nic.phy80211p.minPowerLevel -110dBm
config *.**.nic.phy80211p.useNoiseFloor true
config *.**.nic.phy80211p.noiseFloor -98dBm
config *.**.nic.phy80211p.decider "xmldoc(\"config.xml\")"
config *.**.nic.phy80211p.analogueModels "xmldoc(\"config.xml\")"
config *.**.nic.phy80211p.usePropagationDelay true
config *.**.nic.phy80211p.antenna "xmldoc(\"antenna.xml\", \"/root/Antenna[@id='monopole']\")"
config *.node[*].nic.phy80211p.antennaOffsetY "0 m"
config *.node[*].nic.phy80211p.antennaOffsetZ "1.895 m"
config *.node[*].applType "\"MyVeinsApp\""
config *.node[*].appl.headerLength "80 bit"
config *.node[*].appl.sendBeacons true
config *.node[*].appl.dataOnSch false
config *.node[*].appl.beaconInterval 1s
config *.node[*].veinsmobility.x 0
config *.node[*].veinsmobility.y 0
config *.node[*].veinsmobility.z 0
config *.node[*].veinsmobility.setHostSpeed false
config *.node[*0].veinsmobility.accidentCount 0
config *.node[*0].veinsmobility.accidentStart 5s
config *.node[*0].veinsmobility.accidentDuration 50s
config **.node[*].nic.mac1609_4.useAcks true
config **.node[*].nic.mac1609_4.pcapRecording true
config **.node[*].nic.mac1609_4.pcapFile "\"results/vehicle-network.pcap\""
config *.node[*].veinsmobility.collectStatistics true
config *.rsu[*].applLayer.collectStatistics true
config *.node[*].applLayer.packetReceived.vector-recording true
config *.node[*].applLayer.rssi.vector-recording true

par BasicProjectNetwork.node[1].appl typename "\"org.car2x.veins.modules.application.traci.MyVeinsApp\""
par BasicProjectNetwork.node[1].appl headerLength 80bit
attr unit bit
par BasicProjectNetwork.node[1].appl sendBeacons true
par BasicProjectNetwork.node[1].appl beaconLengthBits 256bit
attr unit bit
par BasicProjectNetwork.node[1].appl beaconUserPriority 7
par BasicProjectNetwork.node[1].appl beaconInterval 1s
attr unit s
par BasicProjectNetwork.node[1].appl dataLengthBits 1024bit
attr unit bit
par BasicProjectNetwork.node[1].appl dataOnSch false
par BasicProjectNetwork.node[1].appl dataUserPriority 7
par BasicProjectNetwork.node[1].appl avoidBeaconSynchronization true
par BasicProjectNetwork.node[1].appl sendWSA false
par BasicProjectNetwork.node[1].appl wsaLengthBits 250bit
attr unit bit
par BasicProjectNetwork.node[1].appl wsaInterval 1s
attr unit s
par BasicProjectNetwork.node[1].appl appName "\"My first Veins App!\""
scalar BasicProjectNetwork.node[1].appl generatedWSMs 0
scalar BasicProjectNetwork.node[1].appl receivedWSMs 0
scalar BasicProjectNetwork.node[1].appl generatedBSMs 24
scalar BasicProjectNetwork.node[1].appl receivedBSMs 192
scalar BasicProjectNetwork.node[1].appl generatedWSAs 0
scalar BasicProjectNetwork.node[1].appl receivedWSAs 0
par BasicProjectNetwork.node[1].nic.phy80211p typename "\"org.car2x.veins.modules.phy.PhyLayer80211p\""
par BasicProjectNetwork.node[1].nic.phy80211p recordStats false
par BasicProjectNetwork.node[1].nic.phy80211p usePropagationDelay true
par BasicProjectNetwork.node[1].nic.phy80211p noiseFloor -98dBm
attr unit dBm
par BasicProjectNetwork.node[1].nic.phy80211p useNoiseFloor true
par BasicProjectNetwork.node[1].nic.phy80211p antenna "<Antenna type=\"SampledAntenna1D\" id=\"monopole\">...</Antenna> at C:/Users/tru89/Security-agent-in-VANETs-AI-Based-Intrusion-Detection/Configuration/Veins_simulation/TrafficLightProject2/simulations/\\antenna.xml:35"
par BasicProjectNetwork.node[1].nic.phy80211p antennaOffsetX 0m
attr unit m
par BasicProjectNetwork.node[1].nic.phy80211p antennaOffsetY 0m
attr unit m
par BasicProjectNetwork.node[1].nic.phy80211p antennaOffsetZ 1.895m
attr unit m
par BasicProjectNetwork.node[1].nic.phy80211p antennaOffsetYaw 0rad
attr unit rad
par BasicProjectNetwork.node[1].nic.phy80211p analogueModels "<root>...</root> at C:/Users/tru89/Security-agent-in-VANETs-AI-Based-Intrusion-Detection/Configuration/Veins_simulation/TrafficLightProject2/simulations/\\config.xml:34"
par BasicProjectNetwork.node[1].nic.phy80211p decider "<root>...</root> at C:/Users/tru89/Security-agent-in-VANETs-AI-Based-Intrusion-Detection/Configuration/Veins_simulation/TrafficLightProject2/simulations/\\config.xml:34"
par BasicProjectNetwork.node[1].nic.phy80211p minPowerLevel -110dBm
attr unit dBm
par BasicProjectNetwork.node[1].nic.phy80211p timeRXToTX 0s
attr unit s
par BasicProjectNetwork.node[1].nic.phy80211p timeRXToSleep 0s
attr unit s
par BasicProjectNetwork.node[1].nic.phy80211p timeTXToRX 0s
attr unit s
par BasicProjectNetwork.node[1].nic.phy80211p timeTXToSleep 0s
attr unit s
par BasicProjectNetwork.node[1].nic.phy80211p timeSleepToRX 0s
attr unit s
par BasicProjectNetwork.node[1].nic.phy80211p timeSleepToTX 0s
attr unit s
par BasicProjectNetwork.node[1].nic.phy80211p initialRadioState 0
par BasicProjectNetwork.node[1].nic.phy80211p radioMinAtt 1
par BasicProjectNetwork.node[1].nic.phy80211p radioMaxAtt 0
par BasicProjectNetwork.node[1].nic.phy80211p nbRadioChannels 1
par BasicProjectNetwork.node[1].nic.phy80211p initialRadioChannel 0
par BasicProjectNetwork.node[1].nic.phy80211p ccaThreshold -65dBm
attr unit dBm
par BasicProjectNetwork.node[1].nic.phy80211p collectCollisionStatistics false
par BasicProjectNetwork.node[1].nic.phy80211p allowTxDuringRx false
scalar BasicProjectNetwork.node[1].nic.phy80211p busyTime 0.000832
par BasicProjectNetwork.node[1].nic.mac1609_4 typename "\"org.car2x.veins.modules.mac.ieee80211p.Mac1609_4\""
par BasicProjectNetwork.node[1].nic.mac1609_4 notAffectedByHostState false
par BasicProjectNetwork.node[1].nic.mac1609_4 headerLength 0bit
attr unit bit
par BasicProjectNetwork.node[1].nic.mac1609_4 address "\"auto\""
par BasicProjectNetwork.node[1].nic.mac1609_4 useServiceChannel false
par BasicProjectNetwork.node[1].nic.mac1609_4 serviceChannel 1
par BasicProjectNetwork.node[1].nic.mac1609_4 bitrate 6000000bps
attr unit bps
par BasicProjectNetwork.node[1].nic.mac1609_4 syncOffset 0.0003s
attr unit s
par BasicProjectNetwork.node[1].nic.mac1609_4 txPower 20mW
attr unit mW
par BasicProjectNetwork.node[1].nic.mac1609_4 queueSize 0
par BasicProjectNetwork.node[1].nic.mac1609_4 dot11RTSThreshold 12000bit
attr unit bit
par BasicProjectNetwork.node[1].nic.mac1609_4 dot11ShortRetryLimit 7
par BasicProjectNetwork.node[1].nic.mac1609_4 dot11LongRetryLimit 4
par BasicProjectNetwork.node[1].nic.mac1609_4 ackLength 112bit
attr unit bit
par BasicProjectNetwork.node[1].nic.mac1609_4 useAcks true
par BasicProjectNetwork.node[1].nic.mac1609_4 frameErrorRate 0
par BasicProjectNetwork.node[1].nic.mac1609_4 ackErrorRate 0
scalar BasicProjectNetwork.node[1].nic.mac1609_4 ReceivedUnicastPackets 0
scalar BasicProjectNetwork.node[1].nic.mac1609_4 ReceivedBroadcasts 192
scalar BasicProjectNetwork.node[1].nic.mac1609_4 SentPackets 24
scalar BasicProjectNetwork.node[1].nic.mac1609_4 SentAcknowledgements 0
scalar BasicProjectNetwork.node[1].nic.mac1609_4 RetriesExceeded 0
scalar BasicProjectNetwork.node[1].nic.mac1609_4 SNIRLostPackets 0
scalar BasicProjectNetwork.node[1].nic.mac1609_4 RXTXLostPackets 0
scalar BasicProjectNetwork.node[1].nic.mac1609_4 TotalLostPackets 0
scalar BasicProjectNetwork.node[1].nic.mac1609_4 DroppedPacketsInMac 0
scalar BasicProjectNetwork.node[1].nic.mac1609_4 TooLittleTime 0
scalar BasicProjectNetwork.node[1].nic.mac1609_4 TimesIntoBackoff 24
scalar BasicProjectNetwork.node[1].nic.mac1609_4 SlotsBackoff 48
scalar BasicProjectNetwork.node[1].nic.mac1609_4 NumInternalContention 0
scalar BasicProjectNetwork.node[1].nic.mac1609_4 totalBusyTime 0.022488
scalar BasicProjectNetwork.node[1].nic.mac1609_4 retriesExceeded:count 0
attr recordingmode count
attr source org_car2x_veins_modules_mac_sigRetriesExceeded
scalar BasicProjectNetwork.node[1].nic.mac1609_4 sentAcks:count 0
attr recordingmode count
attr source org_car2x_veins_modules_mac_sigSentAck
scalar BasicProjectNetwork.node[1].nic.mac1609_4 sentPackets:count 24
attr recordingmode count
attr source org_car2x_veins_modules_mac_sigSentPacket
scalar BasicProjectNetwork.node[1].nic.mac1609_4 collisions:count 0
attr recordingmode count
attr source org_car2x_veins_modules_mac_sigCollision
scalar BasicProjectNetwork.node[1].nic.mac1609_4 channelBusy:timeavg 0.000937
attr recordingmode timeavg
attr source org_car2x_veins_modules_mac_sigChannelBusy
par BasicProjectNetwork.node[1].nic typename "\"org.car2x.veins.modules.nic.Nic80211p\""
par BasicProjectNetwork.node[1].nic connectionManagerName "\"connectionManager\""
par BasicProjectNetwork.node[1].veinsmobility typename "\"org.car2x.veins.modules.mobility.traci.TraCIMobility\""
par BasicProjectNetwork.node[1].veinsmobility notAffectedByHostState true
par BasicProjectNetwork.node[1].veinsmobility x 0
par BasicProjectNetwork.node[1].veinsmobility y 0
par BasicProjectNetwork.node[1].veinsmobility z 0
par BasicProjectNetwork.node[1].veinsmobility xOrientation 1
par BasicProjectNetwork.node[1].veinsmobility yOrientation 0
par BasicProjectNetwork.node[1].veinsmobility zOrientation 0
par BasicProjectNetwork.node[1].veinsmobility hostPositionOffset 0m
attr unit m
par BasicProjectNetwork.node[1].veinsmobility setHostSpeed false
par BasicProjectNetwork.node[1].veinsmobility accidentCount 0
par BasicProjectNetwork.node[1].veinsmobility accidentStart 48.7069s
attr unit s
par BasicProjectNetwork.node[1].veinsmobility accidentDuration "uniform(30s, 60s)"
attr unit s
par BasicProjectNetwork.node[1].veinsmobility accidentInterval "uniform(30s, 60s)"
attr unit s
scalar BasicProjectNetwork.node[1].veinsmobility startTime 1
scalar BasicProjectNetwork.node[1].veinsmobility totalTime 23
scalar BasicProjectNetwork.node[1].veinsmobility stopTime 25
scalar BasicProjectNetwork.node[1].veinsmobility minSpeed 2.5498698164476
scalar BasicProjectNetwork.node[1].veinsmobility maxSpeed 28.599913594398
scalar BasicProjectNetwork.node[1].veinsmobility totalDistance 470.16216135537
scalar BasicProjectNetwork.node[1].veinsmobility totalCO2Emission 172.95686199843
par BasicProjectNetwork.node[1] typename "\"org.car2x.veins.nodes.Car\""
par BasicProjectNetwork.node[1] applType "\"MyVeinsApp\""
par BasicProjectNetwork.node[1] nicType "\"Nic80211p\""
par BasicProjectNetwork.node[1] veinsmobilityType "\"org.car2x.veins.modules.mobility.traci.TraCIMobility\""
par BasicProjectNetwork.node[0].appl typename "\"org.car2x.veins.modules.application.traci.MyVeinsApp\""
par BasicProjectNetwork.node[0].appl headerLength 80bit
attr unit bit
par BasicProjectNetwork.node[0].appl sendBeacons true
par BasicProjectNetwork.node[0].appl beaconLengthBits 256bit
attr unit bit
par BasicProjectNetwork.node[0].appl beaconUserPriority 7
par BasicProjectNetwork.node[0].appl beaconInterval 1s
attr unit s
par BasicProjectNetwork.node[0].appl dataLengthBits 1024bit
attr unit bit
par BasicProjectNetwork.node[0].appl dataOnSch false
par BasicProjectNetwork.node[0].appl dataUserPriority 7
par BasicProjectNetwork.node[0].appl avoidBeaconSynchronization true
par BasicProjectNetwork.node[0].appl sendWSA false
par BasicProjectNetwork.node[0].appl wsaLengthBits 250bit
attr unit bit
par BasicProjectNetwork.node[0].appl wsaInterval 1s
attr unit s
par BasicProjectNetwork.node[0].appl appName "\"My first Veins App!\""
scalar BasicProjectNetwork.node[0].appl generatedWSMs 0
scalar BasicProjectNetwork.node[0].appl receivedWSMs 0
scalar BasicProjectNetwork.node[0].appl generatedBSMs 28
scalar BasicProjectNetwork.node[0].appl receivedBSMs 253
scalar BasicProjectNetwork.node[0].appl generatedWSAs 0
scalar BasicProjectNetwork.node[0].appl receivedWSAs 0
par BasicProjectNetwork.node[0].nic.phy80211p typename "\"org.car2x.veins.modules.phy.PhyLayer80211p\""
par BasicProjectNetwork.node[0].nic.phy80211p recordStats false
par BasicProjectNetwork.node[0].nic.phy80211p usePropagationDelay true
par BasicProjectNetwork.node[0].nic.phy80211p noiseFloor -98dBm
attr unit dBm
par BasicProjectNetwork.node[0].nic.phy80211p useNoiseFloor true
par BasicProjectNetwork.node[0].nic.phy80211p antenna "<Antenna type=\"SampledAntenna1D\" id=\"monopole\">...</Antenna> at C:/Users/tru89/Security-agent-in-VANETs-AI-Based-Intrusion-Detection/Configuration/Veins_simulation/TrafficLightProject2/simulations/\\antenna.xml:35"
par BasicProjectNetwork.node[0].nic.phy80211p antennaOffsetX 0m
attr unit m
par BasicProjectNetwork.node[0].nic.phy80211p antennaOffsetY 0m
attr unit m
par BasicProjectNetwork.node[0].nic.phy80211p antennaOffsetZ 1.895m
attr unit m
par BasicProjectNetwork.node[0].nic.phy80211p antennaOffsetYaw 0rad
attr unit rad
par BasicProjectNetwork.node[0].nic.phy80211p analogueModels "<root>...</root> at C:/Users/tru89/Security-agent-in-VANETs-AI-Based-Intrusion-Detection/Configuration/Veins_simulation/TrafficLightProject2/simulations/\\config.xml:34"
par BasicProjectNetwork.node[0].nic.phy80211p decider "<root>...</root> at C:/Users/tru89/Security-agent-in-VANETs-AI-Based-Intrusion-Detection/Configuration/Veins_simulation/TrafficLightProject2/simulations/\\config.xml:34"
par BasicProjectNetwork.node[0].nic.phy80211p minPowerLevel -110dBm
attr unit dBm
par BasicProjectNetwork.node[0].nic.phy80211p timeRXToTX 0s
attr unit s
par BasicProjectNetwork.node[0].nic.phy80211p timeRXToSleep 0s
attr unit s
par BasicProjectNetwork.node[0].nic.phy80211p timeTXToRX 0s
attr unit s
par BasicProjectNetwork.node[0].nic.phy80211p timeTXToSleep 0s
attr unit s
par BasicProjectNetwork.node[0].nic.phy80211p timeSleepToRX 0s
attr unit s
par BasicProjectNetwork.node[0].nic.phy80211p timeSleepToTX 0s
attr unit s
par BasicProjectNetwork.node[0].nic.phy80211p initialRadioState 0
par BasicProjectNetwork.node[0].nic.phy80211p radioMinAtt 1
par BasicProjectNetwork.node[0].nic.phy80211p radioMaxAtt 0
par BasicProjectNetwork.node[0].nic.phy80211p nbRadioChannels 1
par BasicProjectNetwork.node[0].nic.phy80211p initialRadioChannel 0
par BasicProjectNetwork.node[0].nic.phy80211p ccaThreshold -65dBm
attr unit dBm
par BasicProjectNetwork.node[0].nic.phy80211p collectCollisionStatistics false
par BasicProjectNetwork.node[0].nic.phy80211p allowTxDuringRx false
scalar BasicProjectNetwork.node[0].nic.phy80211p busyTime 0.00093971428571429
par BasicProjectNetwork.node[0].nic.mac1609_4 typename "\"org.car2x.veins.modules.mac.ieee80211p.Mac1609_4\""
par BasicProjectNetwork.node[0].nic.mac1609_4 notAffectedByHostState false
par BasicProjectNetwork.node[0].nic.mac1609_4 headerLength 0bit
attr unit bit
par BasicProjectNetwork.node[0].nic.mac1609_4 address "\"auto\""
par BasicProjectNetwork.node[0].nic.mac1609_4 useServiceChannel false
par BasicProjectNetwork.node[0].nic.mac1609_4 serviceChannel 1
par BasicProjectNetwork.node[0].nic.mac1609_4 bitrate 6000000bps
attr unit bps
par BasicProjectNetwork.node[0].nic.mac1609_4 syncOffset 0.0003s
attr unit s
par BasicProjectNetwork.node[0].nic.mac1609_4 txPower 20mW
attr unit mW
par BasicProjectNetwork.node[0].nic.mac1609_4 queueSize 0
par BasicProjectNetwork.node[0].nic.mac1609_4 dot11RTSThreshold 12000bit
attr unit bit
par BasicProjectNetwork.node[0].nic.mac1609_4 dot11ShortRetryLimit 7
par BasicProjectNetwork.node[0].nic.mac1609_4 dot11LongRetryLimit 4
par BasicProjectNetwork.node[0].nic.mac1609_4 ackLength 112bit
attr unit bit
par BasicProjectNetwork.node[0].nic.mac1609_4 useAcks true
par BasicProjectNetwork.node[0].nic.mac1609_4 frameErrorRate 0
par BasicProjectNetwork.node[0].nic.mac1609_4 ackErrorRate 0
scalar BasicProjectNetwork.node[0].nic.mac1609_4 ReceivedUnicastPackets 0
scalar BasicProjectNetwork.node[0].nic.mac1609_4 ReceivedBroadcasts 253
scalar BasicProjectNetwork.node[0].nic.mac1609_4 SentPackets 28
scalar BasicProjectNetwork.node[0].nic.mac1609_4 SentAcknowledgements 0
scalar BasicProjectNetwork.node[0].nic.mac1609_4 RetriesExceeded 0
scalar BasicProjectNetwork.node[0].nic.mac1609_4 SNIRLostPackets 0
scalar BasicProjectNetwork.node[0].nic.mac1609_4 RXTXLostPackets 0
scalar BasicProjectNetwork.node[0].nic.mac1609_4 TotalLostPackets 0
scalar BasicProjectNetwork.node[0].nic.mac1609_4 DroppedPacketsInMac 0
scalar BasicProjectNetwork.node[0].nic.mac1609_4 TooLittleTime 0
scalar BasicProjectNetwork.node[0].nic.mac1609_4 TimesIntoBackoff 28
scalar BasicProjectNetwork.node[0].nic.mac1609_4 SlotsBackoff 40
scalar BasicProjectNetwork.node[0].nic.mac1609_4 NumInternalContention 0
scalar BasicProjectNetwork.node[0].nic.mac1609_4 totalBusyTime 0.029252
scalar BasicProjectNetwork.node[0].nic.mac1609_4 retriesExceeded:count 0
attr recordingmode count
attr source org_car2x_veins_modules_mac_sigRetriesExceeded
scalar BasicProjectNetwork.node[0].nic.mac1609_4 sentAcks:count 0
attr recordingmode count
attr source org_car2x_veins_modules_mac_sigSentAck
scalar BasicProjectNetwork.node[0].nic.mac1609_4 sentPackets:count 28
attr recordingmode count
attr source org_car2x_veins_modules_mac_sigSentPacket
scalar BasicProjectNetwork.node[0].nic.mac1609_4 collisions:count 0
attr recordingmode count
attr source org_car2x_veins_modules_mac_sigCollision
scalar BasicProjectNetwork.node[0].nic.mac1609_4 channelBusy:timeavg 0.0010447142857143
attr recordingmode timeavg
attr source org_car2x_veins_modules_mac_sigChannelBusy
par BasicProjectNetwork.node[0].nic typename "\"org.car2x.veins.modules.nic.Nic80211p\""
par BasicProjectNetwork.node[0].nic connectionManagerName "\"connectionManager\""
par BasicProjectNetwork.node[0].veinsmobility typename "\"org.car2x.veins.modules.mobility.traci.TraCIMobility\""
par BasicProjectNetwork.node[0].veinsmobility notAffectedByHostState true
par BasicProjectNetwork.node[0].veinsmobility x 0
par BasicProjectNetwork.node[0].veinsmobility y 0
par BasicProjectNetwork.node[0].veinsmobility z 0
par BasicProjectNetwork.node[0].veinsmobility xOrientation 1
par BasicProjectNetwork.node[0].veinsmobility yOrientation 0
par BasicProjectNetwork.node[0].veinsmobility zOrientation 0
par BasicProjectNetwork.node[0].veinsmobility hostPositionOffset 0m
attr unit m
par BasicProjectNetwork.node[0].veinsmobility setHostSpeed false
par BasicProjectNetwork.node[0].veinsmobility accidentCount 0
par BasicProjectNetwork.node[0].veinsmobility accidentStart 5s
attr unit s
par BasicProjectNetwork.node[0].veinsmobility accidentDuration 50s
attr unit s
par BasicProjectNetwork.node[0].veinsmobility accidentInterval "uniform(30s, 60s)"
attr unit s
scalar BasicProjectNetwork.node[0].veinsmobility startTime 1
scalar BasicProjectNetwork.node[0].veinsmobility totalTime 27
scalar BasicProjectNetwork.node[0].veinsmobility stopTime 29
scalar BasicProjectNetwork.node[0].veinsmobility minSpeed 2.4524649926694
scalar BasicProjectNetwork.node[0].veinsmobility maxSpeed 30.770474308552
scalar BasicProjectNetwork.node[0].veinsmobility totalDistance 470.70912587826
scalar BasicProjectNetwork.node[0].veinsmobility totalCO2Emission 209.9862829676
par BasicProjectNetwork.node[0] typename "\"org.car2x.veins.nodes.Car\""
par BasicProjectNetwork.node[0] applType "\"MyVeinsApp\""
par BasicProjectNetwork.node[0] nicType "\"Nic80211p\""
par BasicProjectNetwork.node[0] veinsmobilityType "\"org.car2x.veins.modules.mobility.traci.TraCIMobility\""
par BasicProjectNetwork.node[4].appl typename "\"org.car2x.veins.modules.application.traci.MyVeinsApp\""
par BasicProjectNetwork.node[4].appl headerLength 80bit
attr unit bit
par BasicProjectNetwork.node[4].appl sendBeacons true
par BasicProjectNetwork.node[4].appl beaconLengthBits 256bit
attr unit bit
par BasicProjectNetwork.node[4].appl beaconUserPriority 7
par BasicProjectNetwork.node[4].appl beaconInterval 1s
attr unit s
par BasicProjectNetwork.node[4].appl dataLengthBits 1024bit
attr unit bit
par BasicProjectNetwork.node[4].appl dataOnSch false
par BasicProjectNetwork.node[4].appl dataUserPriority 7
par BasicProjectNetwork.node[4].appl avoidBeaconSynchronization true
par BasicProjectNetwork.node[4].appl sendWSA false
par BasicProjectNetwork.node[4].appl wsaLengthBits 250bit
attr unit bit
par BasicProjectNetwork.node[4].appl wsaInterval 1s
attr unit s
par BasicProjectNetwork.node[4].appl appName "\"My first Veins App!\""
scalar BasicProjectNetwork.node[4].appl generatedWSMs 0
scalar BasicProjectNetwork.node[4].appl receivedWSMs 0
scalar BasicProjectNetwork.node[4].appl generatedBSMs 24
scalar BasicProjectNetwork.node[4].appl receivedBSMs 244
scalar BasicProjectNetwork.node[4].appl generatedWSAs 0
scalar BasicProjectNetwork.node[4].appl receivedWSAs 0
par BasicProjectNetwork.node[4].nic.phy80211p typename "\"org.car2x.veins.modules.phy.PhyLayer80211p\""
par BasicProjectNetwork.node[4].nic.phy80211p recordStats false
par BasicProjectNetwork.node[4].nic.phy80211p usePropagationDelay true
par BasicProjectNetwork.node[4].nic.phy80211p noiseFloor -98dBm
attr unit dBm
par BasicProjectNetwork.node[4].nic.phy80211p useNoiseFloor true
par BasicProjectNetwork.node[4].nic.phy80211p antenna "<Antenna type=\"SampledAntenna1D\" id=\"monopole\">...</Antenna> at C:/Users/tru89/Security-agent-in-VANETs-AI-Based-Intrusion-Detection/Configuration/Veins_simulation/TrafficLightProject2/simulations/\\antenna.xml:35"
par BasicProjectNetwork.node[4].nic.phy80211p antennaOffsetX 0m
attr unit m
par BasicProjectNetwork.node[4].nic.phy80211p antennaOffsetY 0m
attr unit m
par BasicProjectNetwork.node[4].nic.phy80211p antennaOffsetZ 1.895m
attr unit m
par BasicProjectNetwork.node[4].nic.phy80211p antennaOffsetYaw 0rad
attr unit rad
par BasicProjectNetwork.node[4].nic.phy80211p analogueModels "<root>...</root> at C:/Users/tru89/Security-agent-in-VANETs-AI-Based-Intrusion-Detection/Configuration/Veins_simulation/TrafficLightProject2/simulations/\\config.xml:34"
par BasicProjectNetwork.node[4].nic.phy80211p decider "<root>...</root> at C:/Users/tru89/Security-agent-in-VANETs-AI-Based-Intrusion-Detection/Configuration/Veins_simulation/TrafficLightProject2/simulations/\\config.xml:34"
par BasicProjectNetwork.node[4].nic.phy80211p minPowerLevel -110dBm
attr unit dBm
par BasicProjectNetwork.node[4].nic.phy80211p timeRXToTX 0s
attr unit s
par BasicProjectNetwork.node[4].nic.phy80211p timeRXToSleep 0s
attr unit s
par BasicProjectNetwork.node[4].nic.phy80211p timeTXToRX 0s
attr unit s
par BasicProjectNetwork.node[4].nic.phy80211p timeTXToSleep 0s
attr unit s
par BasicProjectNetwork.node[4].nic.phy80211p timeSleepToRX 0s
attr unit s
par BasicProjectNetwork.node[4].nic.phy80211p timeSleepToTX 0s
attr unit s
par BasicProjectNetwork.node[4].nic.phy80211p initialRadioState 0
par BasicProjectNetwork.node[4].nic.phy80211p radioMinAtt 1
par BasicProjectNetwork.node[4].nic.phy80211p radioMaxAtt 0
par BasicProjectNetwork.node[4].nic.phy80211p nbRadioChannels 1
par BasicProjectNetwork.node[4].nic.phy80211p initialRadioChannel 0
par BasicProjectNetwork.node[4].nic.phy80211p ccaThreshold -65dBm
attr unit dBm
par BasicProjectNetwork.node[4].nic.phy80211p collectCollisionStatistics false
par BasicProjectNetwork.node[4].nic.phy80211p allowTxDuringRx false
scalar BasicProjectNetwork.node[4].nic.phy80211p busyTime 0.0010573333333333
par BasicProjectNetwork.node[4].nic.mac1609_4 typename "\"org.car2x.veins.modules.mac.ieee80211p.Mac1609_4\""
par BasicProjectNetwork.node[4].nic.mac1609_4 notAffectedByHostState false
par BasicProjectNetwork.node[4].nic.mac1609_4 headerLength 0bit
attr unit bit
par BasicProjectNetwork.node[4].nic.mac1609_4 address "\"auto\""
par BasicProjectNetwork.node[4].nic.mac1609_4 useServiceChannel false
par BasicProjectNetwork.node[4].nic.mac1609_4 serviceChannel 1
par BasicProjectNetwork.node[4].nic.mac1609_4 bitrate 6000000bps
attr unit bps
par BasicProjectNetwork.node[4].nic.mac1609_4 syncOffset 0.0003s
attr unit s
par BasicProjectNetwork.node[4].nic.mac1609_4 txPower 20mW
attr unit mW
par BasicProjectNetwork.node[4].nic.mac1609_4 queueSize 0
par BasicProjectNetwork.node[4].nic.mac1609_4 dot11RTSThreshold 12000bit
attr unit bit
par BasicProjectNetwork.node[4].nic.mac1609_4 dot11ShortRetryLimit 7
par BasicProjectNetwork.node[4].nic.mac1609_4 dot11LongRetryLimit 4
par BasicProjectNetwork.node[4].nic.mac1609_4 ackLength 112bit
attr unit bit
par BasicProjectNetwork.node[4].nic.mac1609_4 useAcks true
par BasicProjectNetwork.node[4].nic.mac1609_4 frameErrorRate 0
par BasicProjectNetwork.node[4].nic.mac1609_4 ackErrorRate 0
scalar BasicProjectNetwork.node[4].nic.mac1609_4 ReceivedUnicastPackets 0
scalar BasicProjectNetwork.node[4].nic.mac1609_4 ReceivedBroadcasts 244
scalar BasicProjectNetwork.node[4].nic.mac1609_4 SentPackets 24
scalar BasicProjectNetwork.node[4].nic.mac1609_4 SentAcknowledgements 0
scalar BasicProjectNetwork.node[4].nic.mac1609_4 RetriesExceeded 0
scalar BasicProjectNetwork.node[4].nic.mac1609_4 SNIRLostPackets 0
scalar BasicProjectNetwork.node[4].nic.mac1609_4 RXTXLostPackets 0
scalar BasicProjectNetwork.node[4].nic.mac1609_4 TotalLostPackets 0
scalar BasicProjectNetwork.node[4].nic.mac1609_4 DroppedPacketsInMac 0
scalar BasicProjectNetwork.node[4].nic.mac1609_4 TooLittleTime 0
scalar BasicProjectNetwork.node[4].nic.mac1609_4 TimesIntoBackoff 24
scalar BasicProjectNetwork.node[4].nic.mac1609_4 SlotsBackoff 33
scalar BasicProjectNetwork.node[4].nic.mac1609_4 NumInternalContention 0
scalar BasicProjectNetwork.node[4].nic.mac1609_4 totalBusyTime 0.027896
scalar BasicProjectNetwork.node[4].nic.mac1609_4 retriesExceeded:count 0
attr recordingmode count
attr source org_car2x_veins_modules_mac_sigRetriesExceeded
scalar BasicProjectNetwork.node[4].nic.mac1609_4 sentAcks:count 0
attr recordingmode count
attr source org_car2x_veins_modules_mac_sigSentAck
scalar BasicProjectNetwork.node[4].nic.mac1609_4 sentPackets:count 24
attr recordingmode count
attr source org_car2x_veins_modules_mac_sigSentPacket
scalar BasicProjectNetwork.node[4].nic.mac1609_4 collisions:count 0
attr recordingmode count
attr source org_car2x_veins_modules_mac_sigCollision
scalar BasicProjectNetwork.node[4].nic.mac1609_4 channelBusy:timeavg 0.0011623333333333
attr recordingmode timeavg
attr source org_car2x_veins_modules_mac_sigChannelBusy
par BasicProjectNetwork.node[4].nic typename "\"org.car2x.veins.modules.nic.Nic80211p\""
par BasicProjectNetwork.node[4].nic connectionManagerName "\"connectionManager\""
par BasicProjectNetwork.node[4].veinsmobility typename "\"org.car2x.veins.modules.mobility.traci.TraCIMobility\""
par BasicProjectNetwork.node[4].veinsmobility notAffectedByHostState true
par BasicProjectNetwork.node[4].veinsmobility x 0
par BasicProjectNetwork.node[4].veinsmobility y 0
par BasicProjectNetwork.node[4].veinsmobility z 0
par BasicProjectNetwork.node[4].veinsmobility xOrientation 1
par BasicProjectNetwork.node[4].veinsmobility yOrientation 0
par BasicProjectNetwork.node[4].veinsmobility zOrientation 0
par BasicProjectNetwork.node[4].veinsmobility hostPositionOffset 0m
attr unit m
par BasicProjectNetwork.node[4].veinsmobility setHostSpeed false
par BasicProjectNetwork.node[4].veinsmobility accidentCount 0
par BasicProjectNetwork.node[4].veinsmobility accidentStart 49.8758s
attr unit s
par BasicProjectNetwork.node[4].veinsmobility accidentDuration "uniform(30s, 60s)"
attr unit s
par BasicProjectNetwork.node[4].veinsmobility accidentInterval "uniform(30s, 60s)"
attr unit s
scalar BasicProjectNetwork.node[4].veinsmobility startTime 5
scalar BasicProjectNetwork.node[4].veinsmobility totalTime 23
scalar BasicProjectNetwork.node[4].veinsmobility stopTime 29
scalar BasicProjectNetwork.node[4].veinsmobility minSpeed 2.0565801601624
scalar BasicProjectNetwork.node[4].veinsmobility maxSpeed 32.032615305603
scalar BasicProjectNetwork.node[4].veinsmobility totalDistance 475.43647828999
scalar BasicProjectNetwork.node[4].veinsmobility totalCO2Emission 207.52750019552
par BasicProjectNetwork.node[4] typename "\"org.car2x.veins.nodes.Car\""
par BasicProjectNetwork.node[4] applType "\"MyVeinsApp\""
par BasicProjectNetwork.node[4] nicType "\"Nic80211p\""
par BasicProjectNetwork.node[4] veinsmobilityType "\"org.car2x.veins.modules.mobility.traci.TraCIMobility\""
par BasicProjectNetwork.obstacles typename "\"org.car2x.veins.modules.obstacle.ObstacleControl\""
par BasicProjectNetwork.obstacles obstacles "<obstacles/> at content:1"
par BasicProjectNetwork.obstacles gridCellSize 250
par BasicProjectNetwork.annotations typename "\"org.car2x.veins.modules.world.annotations.AnnotationManager\""
par BasicProjectNetwork.annotations draw true
par BasicProjectNetwork.annotations annotations "<annotations/> at content:1"
par BasicProjectNetwork.connectionManager typename "\"org.car2x.veins.base.connectionManager.ConnectionManager\""
par BasicProjectNetwork.connectionManager sendDirect true
par BasicProjectNetwork.connectionManager maxInterfDist 2600m
attr unit m
par BasicProjectNetwork.connectionManager drawMaxIntfDist false
par BasicProjectNetwork.world typename "\"org.car2x.veins.base.modules.BaseWorldUtility\""
par BasicProjectNetwork.world playgroundSizeX 8000m
attr unit m
par BasicProjectNetwork.world playgroundSizeY 10000m
attr unit m
par BasicProjectNetwork.world playgroundSizeZ 50m
attr unit m
par BasicProjectNetwork.world useTorus false
par BasicProjectNetwork.world use2D false
par BasicProjectNetwork.manager typename "\"org.car2x.veins.modules.mobility.traci.TraCIScenarioManagerLaunchd\""
par BasicProjectNetwork.manager connectAt 0s
attr unit s
par BasicProjectNetwork.manager firstStepAt -1s
attr unit s
par BasicProjectNetwork.manager updateInterval 1s
attr unit s
par BasicProjectNetwork.manager moduleType "\"org.car2x.veins.nodes.Car\""
par BasicProjectNetwork.manager moduleName "\"node\""
par BasicProjectNetwork.manager moduleDisplayString "\"*='i=veins/node/car;is=vs'\""
par BasicProjectNetwork.manager trafficLightModuleType "\"org.car2x.veins.nodes.TrafficLight\""
par BasicProjectNetwork.manager trafficLightModuleName "\"tls\""
par BasicProjectNetwork.manager trafficLightFilter "\"gneJ1\""
par BasicProjectNetwork.manager trafficLightModuleDisplayString "\"i=veins/node/trafficlight;is=vs\""
par BasicProjectNetwork.manager host "\"localhost\""
par BasicProjectNetwork.manager port 9999
par BasicProjectNetwork.manager seed -1
par BasicProjectNetwork.manager autoShutdown true
par BasicProjectNetwork.manager margin 25
par BasicProjectNetwork.manager roiRoads "\"\""
par BasicProjectNetwork.manager roiRects "\"\""
par BasicProjectNetwork.manager penetrationRate 1
par BasicProjectNetwork.manager ignoreGuiCommands false
par BasicProjectNetwork.manager order -1
par BasicProjectNetwork.manager ignoreUnknownSubscriptionResults false
par BasicProjectNetwork.manager launchConfig "<launch>...</launch> at C:/Users/tru89/Security-agent-in-VANETs-AI-Based-Intrusion-Detection/Configuration/Veins_simulation/TrafficLightProject2/simulations/\\launchd.xml:2"
scalar BasicProjectNetwork.manager roiArea 0
par BasicProjectNetwork.roadsCanvasVisualizer typename "\"org.car2x.veins.visualizer.roads.RoadsCanvasVisualizer\""
par BasicProjectNetwork.roadsCanvasVisualizer enabled true
par BasicProjectNetwork.roadsCanvasVisualizer lineZIndex -1
par BasicProjectNetwork.roadsCanvasVisualizer lineColor "\"firebrick4\""
par BasicProjectNetwork.roadsCanvasVisualizer lineWidth 1
par BasicProjectNetwork.roadsCanvasVisualizer lineWidthZoom false
par BasicProjectNetwork.node[2].appl typename "\"org.car2x.veins.modules.application.traci.MyVeinsApp\""
par BasicProjectNetwork.node[2].appl headerLength 80bit
attr unit bit
par BasicProjectNetwork.node[2].appl sendBeacons true
par BasicProjectNetwork.node[2].appl beaconLengthBits 256bit
attr unit bit
par BasicProjectNetwork.node[2].appl beaconUserPriority 7
par BasicProjectNetwork.node[2].appl beaconInterval 1s
attr unit s
par BasicProjectNetwork.node[2].appl dataLengthBits 1024bit
attr unit bit
par BasicProjectNetwork.node[2].appl dataOnSch false
par BasicProjectNetwork.node[2].appl dataUserPriority 7
par BasicProjectNetwork.node[2].appl avoidBeaconSynchronization true
par BasicProjectNetwork.node[2].appl sendWSA false
par BasicProjectNetwork.node[2].appl wsaLengthBits 250bit
attr unit bit
par BasicProjectNetwork.node[2].appl wsaInterval 1s
attr unit s
par BasicProjectNetwork.node[2].appl appName "\"My first Veins App!\""
scalar BasicProjectNetwork.node[2].appl generatedWSMs 0
scalar BasicProjectNetwork.node[2].appl receivedWSMs 0
scalar BasicProjectNetwork.node[2].appl generatedBSMs 29
scalar BasicProjectNetwork.node[2].appl receivedBSMs 268
scalar BasicProjectNetwork.node[2].appl generatedWSAs 0
scalar BasicProjectNetwork.node[2].appl receivedWSAs 0
par BasicProjectNetwork.node[2].nic.phy80211p typename "\"org.car2x.veins.modules.phy.PhyLayer80211p\""
par BasicProjectNetwork.node[2].nic.phy80211p recordStats false
par BasicProjectNetwork.node[2].nic.phy80211p usePropagationDelay true
par BasicProjectNetwork.node[2].nic.phy80211p noiseFloor -98dBm
attr unit dBm
par BasicProjectNetwork.node[2].nic.phy80211p useNoiseFloor true
par BasicProjectNetwork.node[2].nic.phy80211p antenna "<Antenna type=\"SampledAntenna1D\" id=\"monopole\">...</Antenna> at C:/Users/tru89/Security-agent-in-VANETs-AI-Based-Intrusion-Detection/Configuration/Veins_simulation/TrafficLightProject2/simulations/\\antenna.xml:35"
par BasicProjectNetwork.node[2].nic.phy80211p antennaOffsetX 0m
attr unit m
par BasicProjectNetwork.node[2].nic.phy80211p antennaOffsetY 0m
attr unit m
par BasicProjectNetwork.node[2].nic.phy80211p antennaOffsetZ 1.895m
attr unit m
par BasicProjectNetwork.node[2].nic.phy80211p antennaOffsetYaw 0rad
attr unit rad
par BasicProjectNetwork.node[2].nic.phy80211p analogueModels "<root>...</root> at C:/Users/tru89/Security-agent-in-VANETs-AI-Based-Intrusion-Detection/Configuration/Veins_simulation/TrafficLightProject2/simulations/\\config.xml:34"
par BasicProjectNetwork.node[2].nic.phy80211p decider "<root>...</root> at C:/Users/tru89/Security-agent-in-VANETs-AI-Based-Intrusion-Detection/Configuration/Veins_simulation/TrafficLightProject2/simulations/\\config.xml:34"
par BasicProjectNetwork.node[2].nic.phy80211p minPowerLevel -110dBm
attr unit dBm
par BasicProjectNetwork.node[2].nic.phy80211p timeRXToTX 0s
attr unit s
par BasicProjectNetwork.node[2].nic.phy80211p timeRXToSleep 0s
attr unit s
par BasicProjectNetwork.node[2].nic.phy80211p timeTXToRX 0s
attr unit s
par BasicProjectNetwork.node[2].nic.phy80211p timeTXToSleep 0s
attr unit s
par BasicProjectNetwork.node[2].nic.phy80211p timeSleepToRX 0s
attr unit s
par BasicProjectNetwork.node[2].nic.phy80211p timeSleepToTX 0s
attr unit s
par BasicProjectNetwork.node[2].nic.phy80211p initialRadioState 0
par BasicProjectNetwork.node[2].nic.phy80211p radioMinAtt 1
par BasicProjectNetwork.node[2].nic.phy80211p radioMaxAtt 0
par BasicProjectNetwork.node[2].nic.phy80211p nbRadioChannels 1
par BasicProjectNetwork.node[2].nic.phy80211p initialRadioChannel 0
par BasicProjectNetwork.node[2].nic.phy80211p ccaThreshold -65dBm
attr unit dBm
par BasicProjectNetwork.node[2].nic.phy80211p collectCollisionStatistics false
par BasicProjectNetwork.node[2].nic.phy80211p allowTxDuringRx false
scalar BasicProjectNetwork.node[2].nic.phy80211p busyTime 0.00096110344827586
par BasicProjectNetwork.node[2].nic.mac1609_4 typename "\"org.car2x.veins.modules.mac.ieee80211p.Mac1609_4\""
par BasicProjectNetwork.node[2].nic.mac1609_4 notAffectedByHostState false
par BasicProjectNetwork.node[2].nic.mac1609_4 headerLength 0bit
attr unit bit
par BasicProjectNetwork.node[2].nic.mac1609_4 address "\"auto\""
par BasicProjectNetwork.node[2].nic.mac1609_4 useServiceChannel false
par BasicProjectNetwork.node[2].nic.mac1609_4 serviceChannel 1
par BasicProjectNetwork.node[2].nic.mac1609_4 bitrate 6000000bps
attr unit bps
par BasicProjectNetwork.node[2].nic.mac1609_4 syncOffset 0.0003s
attr unit s
par BasicProjectNetwork.node[2].nic.mac1609_4 txPower 20mW
attr unit mW
par BasicProjectNetwork.node[2].nic.mac1609_4 queueSize 0
par BasicProjectNetwork.node[2].nic.mac1609_4 dot11RTSThreshold 12000bit
attr unit bit
par BasicProjectNetwork.node[2].nic.mac1609_4 dot11ShortRetryLimit 7
par BasicProjectNetwork.node[2].nic.mac1609_4 dot11LongRetryLimit 4
par BasicProjectNetwork.node[2].nic.mac1609_4 ackLength 112bit
attr unit bit
par BasicProjectNetwork.node[2].nic.mac1609_4 useAcks true
par BasicProjectNetwork.node[2].nic.mac1609_4 frameErrorRate 0
par BasicProjectNetwork.node[2].nic.mac1609_4 ackErrorRate 0
scalar BasicProjectNetwork.node[2].nic.mac1609_4 ReceivedUnicastPackets 0
scalar BasicProjectNetwork.node[2].nic.mac1609_4 ReceivedBroadcasts 268
scalar BasicProjectNetwork.node[2].nic.mac1609_4 SentPackets 29
scalar BasicProjectNetwork.node[2].nic.mac1609_4 SentAcknowledgements 0
scalar BasicProjectNetwork.node[2].nic.mac1609_4 RetriesExceeded 0
scalar BasicProjectNetwork.node[2].nic.mac1609_4 SNIRLostPackets 0
scalar BasicProjectNetwork.node[2].nic.mac1609_4 RXTXLostPackets 0
scalar BasicProjectNetwork.node[2].nic.mac1609_4 TotalLostPackets 0
scalar BasicProjectNetwork.node[2].nic.mac1609_4 DroppedPacketsInMac 0
scalar BasicProjectNetwork.node[2].nic.mac1609_4 TooLittleTime 0
scalar BasicProjectNetwork.node[2].nic.mac1609_4 TimesIntoBackoff 29
scalar BasicProjectNetwork.node[2].nic.mac1609_4 SlotsBackoff 39
scalar BasicProjectNetwork.node[2].nic.mac1609_4 NumInternalContention 0
scalar BasicProjectNetwork.node[2].nic.mac1609_4 totalBusyTime 0.030917
scalar BasicProjectNetwork.node[2].nic.mac1609_4 retriesExceeded:count 0
attr recordingmode count
attr source org_car2x_veins_modules_mac_sigRetriesExceeded
scalar BasicProjectNetwork.node[2].nic.mac1609_4 sentAcks:count 0
attr recordingmode count
attr source org_car2x_veins_modules_mac_sigSentAck
scalar BasicProjectNetwork.node[2].nic.mac1609_4 sentPackets:count 29
attr recordingmode count
attr source org_car2x_veins_modules_mac_sigSentPacket
scalar BasicProjectNetwork.node[2].nic.mac1609_4 collisions:count 0
attr recordingmode count
attr source org_car2x_veins_modules_mac_sigCollision
scalar BasicProjectNetwork.node[2].nic.mac1609_4 channelBusy:timeavg 0.0010661034482759
attr recordingmode timeavg
attr source org_car2x_veins_modules_mac_sigChannelBusy
par BasicProjectNetwork.node[2].nic typename "\"org.car2x.veins.modules.nic.Nic80211p\""
par BasicProjectNetwork.node[2].nic connectionManagerName "\"connectionManager\""
par BasicProjectNetwork.node[2].veinsmobility typename "\"org.car2x.veins.modules.mobility.traci.TraCIMobility\""
par BasicProjectNetwork.node[2].veinsmobility notAffectedByHostState true
par BasicProjectNetwork.node[2].veinsmobility x 0
par BasicProjectNetwork.node[2].veinsmobility y 0
par BasicProjectNetwork.node[2].veinsmobility z 0
par BasicProjectNetwork.node[2].veinsmobility xOrientation 1
par BasicProjectNetwork.node[2].veinsmobility yOrientation 0
par BasicProjectNetwork.node[2].veinsmobility zOrientation 0
par BasicProjectNetwork.node[2].veinsmobility hostPositionOffset 0m
attr unit m
par BasicProjectNetwork.node[2].veinsmobility setHostSpeed false
par BasicProjectNetwork.node[2].veinsmobility accidentCount 0
par BasicProjectNetwork.node[2].veinsmobility accidentStart 56.7532s
attr unit s
par BasicProjectNetwork.node[2].veinsmobility accidentDuration "uniform(30s, 60s)"
attr unit s
par BasicProjectNetwork.node[2].veinsmobility accidentInterval "uniform(30s, 60s)"
attr unit s
scalar BasicProjectNetwork.node[2].veinsmobility startTime 1
scalar BasicProjectNetwork.node[2].veinsmobility totalTime 29
scalar BasicProjectNetwork.node[2].veinsmobility stopTime 30
scalar BasicProjectNetwork.node[2].veinsmobility minSpeed 0
scalar BasicProjectNetwork.node[2].veinsmobility maxSpeed 13.836102737296
scalar BasicProjectNetwork.node[2].veinsmobility totalDistance 219.29718645938
scalar BasicProjectNetwork.node[2].veinsmobility totalCO2Emission 71.309450555777
par BasicProjectNetwork.node[2] typename "\"org.car2x.veins.nodes.Car\""
par BasicProjectNetwork.node[2] applType "\"MyVeinsApp\""
par BasicProjectNetwork.node[2] nicType "\"Nic80211p\""
par BasicProjectNetwork.node[2] veinsmobilityType "\"org.car2x.veins.modules.mobility.traci.TraCIMobility\""
par BasicProjectNetwork.node[3].appl typename "\"org.car2x.veins.modules.application.traci.MyVeinsApp\""
par BasicProjectNetwork.node[3].appl headerLength 80bit
attr unit bit
par BasicProjectNetwork.node[3].appl sendBeacons true
par BasicProjectNetwork.node[3].appl beaconLengthBits 256bit
attr unit bit
par BasicProjectNetwork.node[3].appl beaconUserPriority 7
par BasicProjectNetwork.node[3].appl beaconInterval 1s
attr unit s
par BasicProjectNetwork.node[3].appl dataLengthBits 1024bit
attr unit bit
par BasicProjectNetwork.node[3].appl dataOnSch false
par BasicProjectNetwork.node[3].appl dataUserPriority 7
par BasicProjectNetwork.node[3].appl avoidBeaconSynchronization true
par BasicProjectNetwork.node[3].appl sendWSA false
par BasicProjectNetwork.node[3].appl wsaLengthBits 250bit
attr unit bit
par BasicProjectNetwork.node[3].appl wsaInterval 1s
attr unit s
par BasicProjectNetwork.node[3].appl appName "\"My first Veins App!\""
scalar BasicProjectNetwork.node[3].appl generatedWSMs 0
scalar BasicProjectNetwork.node[3].appl receivedWSMs 0
scalar BasicProjectNetwork.node[3].appl generatedBSMs 26
scalar BasicProjectNetwork.node[3].appl receivedBSMs 262
scalar BasicProjectNetwork.node[3].appl generatedWSAs 0
scalar BasicProjectNetwork.node[3].appl receivedWSAs 0
par BasicProjectNetwork.node[3].nic.phy80211p typename "\"org.car2x.veins.modules.phy.PhyLayer80211p\""
par BasicProjectNetwork.node[3].nic.phy80211p recordStats false
par BasicProjectNetwork.node[3].nic.phy80211p usePropagationDelay true
par BasicProjectNetwork.node[3].nic.phy80211p noiseFloor -98dBm
attr unit dBm
par BasicProjectNetwork.node[3].nic.phy80211p useNoiseFloor true
par BasicProjectNetwork.node[3].nic.phy80211p antenna "<Antenna type=\"SampledAntenna1D\" id=\"monopole\">...</Antenna> at C:/Users/tru89/Security-agent-in-VANETs-AI-Based-Intrusion-Detection/Configuration/Veins_simulation/TrafficLightProject2/simulations/\\antenna.xml:35"
par BasicProjectNetwork.node[3].nic.phy80211p antennaOffsetX 0m
attr unit m
par BasicProjectNetwork.node[3].nic.phy80211p antennaOffsetY 0m
attr unit m
par BasicProjectNetwork.node[3].nic.phy80211p antennaOffsetZ 1.895m
attr unit m
par BasicProjectNetwork.node[3].nic.phy80211p antennaOffsetYaw 0rad
attr unit rad
par BasicProjectNetwork.node[3].nic.phy80211p analogueModels "<root>...</root> at C:/Users/tru89/Security-agent-in-VANETs-AI-Based-Intrusion-Detection/Configuration/Veins_simulation/TrafficLightProject2/simulations/\\config.xml:34"
par BasicProjectNetwork.node[3].nic.phy80211p decider "<root>...</root> at C:/Users/tru89/Security-agent-in-VANETs-AI-Based-Intrusion-Detection/Configuration/Veins_simulation/TrafficLightProject2/simulations/\\config.xml:34"
par BasicProjectNetwork.node[3].nic.phy80211p minPowerLevel -110dBm
attr unit dBm
par BasicProjectNetwork.node[3].nic.phy80211p timeRXToTX 0s
attr unit s
par BasicProjectNetwork.node[3].nic.phy80211p timeRXToSleep 0s
attr unit s
par BasicProjectNetwork.node[3].nic.phy80211p timeTXToRX 0s
attr unit s
par BasicProjectNetwork.node[3].nic.phy80211p timeTXToSleep 0s
attr unit s
par BasicProjectNetwork.node[3].nic.phy80211p timeSleepToRX 0s
attr unit s
par BasicProjectNetwork.node[3].nic.phy80211p timeSleepToTX 0s
attr unit s
par BasicProjectNetwork.node[3].nic.phy80211p initialRadioState 0
par BasicProjectNetwork.node[3].nic.phy80211p radioMinAtt 1
par BasicProjectNetwork.node[3].nic.phy80211p radioMaxAtt 0
par BasicProjectNetwork.node[3].nic.phy80211p nbRadioChannels 1
par BasicProjectNetwork.node[3].nic.phy80211p initialRadioChannel 0
par BasicProjectNetwork.node[3].nic.phy80211p ccaThreshold -65dBm
attr unit dBm
par BasicProjectNetwork.node[3].nic.phy80211p collectCollisionStatistics false
par BasicProjectNetwork.node[3].nic.phy80211p allowTxDuringRx false
scalar BasicProjectNetwork.node[3].nic.phy80211p busyTime 0.001048
par BasicProjectNetwork.node[3].nic.mac1609_4 typename "\"org.car2x.veins.modules.mac.ieee80211p.Mac1609_4\""
par BasicProjectNetwork.node[3].nic.mac1609_4 notAffectedByHostState false
par BasicProjectNetwork.node[3].nic.mac1609_4 headerLength 0bit
attr unit bit
par BasicProjectNetwork.node[3].nic.mac1609_4 address "\"auto\""
par BasicProjectNetwork.node[3].nic.mac1609_4 useServiceChannel false
par BasicProjectNetwork.node[3].nic.mac1609_4 serviceChannel 1
par BasicProjectNetwork.node[3].nic.mac1609_4 bitrate 6000000bps
attr unit bps
par BasicProjectNetwork.node[3].nic.mac1609_4 syncOffset 0.0003s
attr unit s
par BasicProjectNetwork.node[3].nic.mac1609_4 txPower 20mW
attr unit mW
par BasicProjectNetwork.node[3].nic.mac1609_4 queueSize 0
par BasicProjectNetwork.node[3].nic.mac1609_4 dot11RTSThreshold 12000bit
attr unit bit
par BasicProjectNetwork.node[3].nic.mac1609_4 dot11ShortRetryLimit 7
par BasicProjectNetwork.node[3].nic.mac1609_4 dot11LongRetryLimit 4
par BasicProjectNetwork.node[3].nic.mac1609_4 ackLength 112bit
attr unit bit
par BasicProjectNetwork.node[3].nic.mac1609_4 useAcks true
par BasicProjectNetwork.node[3].nic.mac1609_4 frameErrorRate 0
par BasicProjectNetwork.node[3].nic.mac1609_4 ackErrorRate 0
scalar BasicProjectNetwork.node[3].nic.mac1609_4 ReceivedUnicastPackets 0
scalar BasicProjectNetwork.node[3].nic.mac1609_4 ReceivedBroadcasts 262
scalar BasicProjectNetwork.node[3].nic.mac1609_4 SentPackets 26
scalar BasicProjectNetwork.node[3].nic.mac1609_4 SentAcknowledgements 0
scalar BasicProjectNetwork.node[3].nic.mac1609_4 RetriesExceeded 0
scalar BasicProjectNetwork.node[3].nic.mac1609_4 SNIRLostPackets 0
scalar BasicProjectNetwork.node[3].nic.mac1609_4 RXTXLostPackets 0
scalar BasicProjectNetwork.node[3].nic.mac1609_4 TotalLostPackets 0
scalar BasicProjectNetwork.node[3].nic.mac1609_4 DroppedPacketsInMac 0
scalar BasicProjectNetwork.node[3].nic.mac1609_4 TooLittleTime 0
scalar BasicProjectNetwork.node[3].nic.mac1609_4 TimesIntoBackoff 26
scalar BasicProjectNetwork.node[3].nic.mac1609_4 SlotsBackoff 40
scalar BasicProjectNetwork.node[3].nic.mac1609_4 NumInternalContention 0
scalar BasicProjectNetwork.node[3].nic.mac1609_4 totalBusyTime 0.029978
scalar BasicProjectNetwork.node[3].nic.mac1609_4 retriesExceeded:count 0
attr recordingmode count
attr source org_car2x_veins_modules_mac_sigRetriesExceeded
scalar BasicProjectNetwork.node[3].nic.mac1609_4 sentAcks:count 0
attr recordingmode count
attr source org_car2x_veins_modules_mac_sigSentAck
scalar BasicProjectNetwork.node[3].nic.mac1609_4 sentPackets:count 26
attr recordingmode count
attr source org_car2x_veins_modules_mac_sigSentPacket
scalar BasicProjectNetwork.node[3].nic.mac1609_4 collisions:count 0
attr recordingmode count
attr source org_car2x_veins_modules_mac_sigCollision
scalar BasicProjectNetwork.node[3].nic.mac1609_4 channelBusy:timeavg 0.001153
attr recordingmode timeavg
attr source org_car2x_veins_modules_mac_sigChannelBusy
par BasicProjectNetwork.node[3].nic typename "\"org.car2x.veins.modules.nic.Nic80211p\""
par BasicProjectNetwork.node[3].nic connectionManagerName "\"connectionManager\""
par BasicProjectNetwork.node[3].veinsmobility typename "\"org.car2x.veins.modules.mobility.traci.TraCIMobility\""
par BasicProjectNetwork.node[3].veinsmobility notAffectedByHostState true
par BasicProjectNetwork.node[3].veinsmobility x 0
par BasicProjectNetwork.node[3].veinsmobility y 0
par BasicProjectNetwork.node[3].veinsmobility z 0
par BasicProjectNetwork.node[3].veinsmobility xOrientation 1
par BasicProjectNetwork.node[3].veinsmobility yOrientation 0
par BasicProjectNetwork.node[3].veinsmobility zOrientation 0
par BasicProjectNetwork.node[3].veinsmobility hostPositionOffset 0m
attr unit m
par BasicProjectNetwork.node[3].veinsmobility setHostSpeed false
par BasicProjectNetwork.node[3].veinsmobility accidentCount 0
par BasicProjectNetwork.node[3].veinsmobility accidentStart 32.9784s
attr unit s
par BasicProjectNetwork.node[3].veinsmobility accidentDuration "uniform(30s, 60s)"
attr unit s
par BasicProjectNetwork.node[3].veinsmobility accidentInterval "uniform(30s, 60s)"
attr unit s
scalar BasicProjectNetwork.node[3].veinsmobility startTime 4
scalar BasicProjectNetwork.node[3].veinsmobility totalTime 26
scalar BasicProjectNetwork.node[3].veinsmobility stopTime 30
scalar BasicProjectNetwork.node[3].veinsmobility minSpeed 0
scalar BasicProjectNetwork.node[3].veinsmobility maxSpeed 17.439499595971
scalar BasicProjectNetwork.node[3].veinsmobility totalDistance 220.61345375567
scalar BasicProjectNetwork.node[3].veinsmobility totalCO2Emission 88.468770552677
par BasicProjectNetwork.node[3] typename "\"org.car2x.veins.nodes.Car\""
par BasicProjectNetwork.node[3] applType "\"MyVeinsApp\""
par BasicProjectNetwork.node[3] nicType "\"Nic80211p\""
par BasicProjectNetwork.node[3] veinsmobilityType "\"org.car2x.veins.modules.mobility.traci.TraCIMobility\""
par BasicProjectNetwork.node[5].appl typename "\"org.car2x.veins.modules.application.traci.MyVeinsApp\""
par BasicProjectNetwork.node[5].appl headerLength 80bit
attr unit bit
par BasicProjectNetwork.node[5].appl sendBeacons true
par BasicProjectNetwork.node[5].appl beaconLengthBits 256bit
attr unit bit
par BasicProjectNetwork.node[5].appl beaconUserPriority 7
par BasicProjectNetwork.node[5].appl beaconInterval 1s
attr unit s
par BasicProjectNetwork.node[5].appl dataLengthBits 1024bit
attr unit bit
par BasicProjectNetwork.node[5].appl dataOnSch false
par BasicProjectNetwork.node[5].appl dataUserPriority 7
par BasicProjectNetwork.node[5].appl avoidBeaconSynchronization true
par BasicProjectNetwork.node[5].appl sendWSA false
par BasicProjectNetwork.node[5].appl wsaLengthBits 250bit
attr unit bit
par BasicProjectNetwork.node[5].appl wsaInterval 1s
attr unit s
par BasicProjectNetwork.node[5].appl appName "\"My first Veins App!\""
scalar BasicProjectNetwork.node[5].appl generatedWSMs 0
scalar BasicProjectNetwork.node[5].appl receivedWSMs 0
scalar BasicProjectNetwork.node[5].appl generatedBSMs 23
scalar BasicProjectNetwork.node[5].appl receivedBSMs 251
scalar BasicProjectNetwork.node[5].appl generatedWSAs 0
scalar BasicProjectNetwork.node[5].appl receivedWSAs 0
par BasicProjectNetwork.node[5].nic.phy80211p typename "\"org.car2x.veins.modules.phy.PhyLayer80211p\""
par BasicProjectNetwork.node[5].nic.phy80211p recordStats false
par BasicProjectNetwork.node[5].nic.phy80211p usePropagationDelay true
par BasicProjectNetwork.node[5].nic.phy80211p noiseFloor -98dBm
attr unit dBm
par BasicProjectNetwork.node[5].nic.phy80211p useNoiseFloor true
par BasicProjectNetwork.node[5].nic.phy80211p antenna "<Antenna type=\"SampledAntenna1D\" id=\"monopole\">...</Antenna> at C:/Users/tru89/Security-agent-in-VANETs-AI-Based-Intrusion-Detection/Configuration/Veins_simulation/TrafficLightProject2/simulations/\\antenna.xml:35"
par BasicProjectNetwork.node[5].nic.phy80211p antennaOffsetX 0m
attr unit m
par BasicProjectNetwork.node[5].nic.phy80211p antennaOffsetY 0m
attr unit m
par BasicProjectNetwork.node[5].nic.phy80211p antennaOffsetZ 1.895m
attr unit m
par BasicProjectNetwork.node[5].nic.phy80211p antennaOffsetYaw 0rad
attr unit rad
par BasicProjectNetwork.node[5].nic.phy80211p analogueModels "<root>...</root> at C:/Users/tru89/Security-agent-in-VANETs-AI-Based-Intrusion-Detection/Configuration/Veins_simulation/TrafficLightProject2/simulations/\\config.xml:34"
par BasicProjectNetwork.node[5].nic.phy80211p decider "<root>...</root> at C:/Users/tru89/Security-agent-in-VANETs-AI-Based-Intrusion-Detection/Configuration/Veins_simulation/TrafficLightProject2/simulations/\\config.xml:34"
par BasicProjectNetwork.node[5].nic.phy80211p minPowerLevel -110dBm
attr unit dBm
par BasicProjectNetwork.node[5].nic.phy80211p timeRXToTX 0s
attr unit s
par BasicProjectNetwork.node[5].nic.phy80211p timeRXToSleep 0s
attr unit s
par BasicProjectNetwork.node[5].nic.phy80211p timeTXToRX 0s
attr unit s
par BasicProjectNetwork.node[5].nic.phy80211p timeTXToSleep 0s
attr unit s
par BasicProjectNetwork.node[5].nic.phy80211p timeSleepToRX 0s
attr unit s
par BasicProjectNetwork.node[5].nic.phy80211p timeSleepToTX 0s
attr unit s
par BasicProjectNetwork.node[5].nic.phy80211p initialRadioState 0
par BasicProjectNetwork.node[5].nic.phy80211p radioMinAtt 1
par BasicProjectNetwork.node[5].nic.phy80211p radioMaxAtt 0
par BasicProjectNetwork.node[5].nic.phy80211p nbRadioChannels 1
par BasicProjectNetwork.node[5].nic.phy80211p initialRadioChannel 0
par BasicProjectNetwork.node[5].nic.phy80211p ccaThreshold -65dBm
attr unit dBm
par BasicProjectNetwork.node[5].nic.phy80211p collectCollisionStatistics false
par BasicProjectNetwork.node[5].nic.phy80211p allowTxDuringRx false
scalar BasicProjectNetwork.node[5].nic.phy80211p busyTime 0.0011349565217391
par BasicProjectNetwork.node[5].nic.mac1609_4 typename "\"org.car2x.veins.modules.mac.ieee80211p.Mac1609_4\""
par BasicProjectNetwork.node[5].nic.mac1609_4 notAffectedByHostState false
par BasicProjectNetwork.node[5].nic.mac1609_4 headerLength 0bit
attr unit bit
par BasicProjectNetwork.node[5].nic.mac1609_4 address "\"auto\""
par BasicProjectNetwork.node[5].nic.mac1609_4 useServiceChannel false
par BasicProjectNetwork.node[5].nic.mac1609_4 serviceChannel 1
par BasicProjectNetwork.node[5].nic.mac1609_4 bitrate 6000000bps
attr unit bps
par BasicProjectNetwork.node[5].nic.mac1609_4 syncOffset 0.0003s
attr unit s
par BasicProjectNetwork.node[5].nic.mac1609_4 txPower 20mW
attr unit mW
par BasicProjectNetwork.node[5].nic.mac1609_4 queueSize 0
par BasicProjectNetwork.node[5].nic.mac1609_4 dot11RTSThreshold 12000bit
attr unit bit
par BasicProjectNetwork.node[5].nic.mac1609_4 dot11ShortRetryLimit 7
par BasicProjectNetwork.node[5].nic.mac1609_4 dot11LongRetryLimit 4
par BasicProjectNetwork.node[5].nic.mac1609_4 ackLength 112bit
attr unit bit
par BasicProjectNetwork.node[5].nic.mac1609_4 useAcks true
par BasicProjectNetwork.node[5].nic.mac1609_4 frameErrorRate 0
par BasicProjectNetwork.node[5].nic.mac1609_4 ackErrorRate 0
scalar BasicProjectNetwork.node[5].nic.mac1609_4 ReceivedUnicastPackets 0
scalar BasicProjectNetwork.node[5].nic.mac1609_4 ReceivedBroadcasts 251
scalar BasicProjectNetwork.node[5].nic.mac1609_4 SentPackets 23
scalar BasicProjectNetwork.node[5].nic.mac1609_4 SentAcknowledgements 0
scalar BasicProjectNetwork.node[5].nic.mac1609_4 RetriesExceeded 0
scalar BasicProjectNetwork.node[5].nic.mac1609_4 SNIRLostPackets 0
scalar BasicProjectNetwork.node[5].nic.mac1609_4 RXTXLostPackets 0
scalar BasicProjectNetwork.node[5].nic.mac1609_4 TotalLostPackets 0
scalar BasicProjectNetwork.node[5].nic.mac1609_4 DroppedPacketsInMac 0
scalar BasicProjectNetwork.node[5].nic.mac1609_4 TooLittleTime 0
scalar BasicProjectNetwork.node[5].nic.mac1609_4 TimesIntoBackoff 23
scalar BasicProjectNetwork.node[5].nic.mac1609_4 SlotsBackoff 42
scalar BasicProjectNetwork.node[5].nic.mac1609_4 NumInternalContention 0
scalar BasicProjectNetwork.node[5].nic.mac1609_4 totalBusyTime 0.028519
scalar BasicProjectNetwork.node[5].nic.mac1609_4 retriesExceeded:count 0
attr recordingmode count
attr source org_car2x_veins_modules_mac_sigRetriesExceeded
scalar BasicProjectNetwork.node[5].nic.mac1609_4 sentAcks:count 0
attr recordingmode count
attr source org_car2x_veins_modules_mac_sigSentAck
scalar BasicProjectNetwork.node[5].nic.mac1609_4 sentPackets:count 23
attr recordingmode count
attr source org_car2x_veins_modules_mac_sigSentPacket
scalar BasicProjectNetwork.node[5].nic.mac1609_4 collisions:count 0
attr recordingmode count
attr source org_car2x_veins_modules_mac_sigCollision
scalar BasicProjectNetwork.node[5].nic.mac1609_4 channelBusy:timeavg 0.0012399565217391
attr recordingmode timeavg
attr source org_car2x_veins_modules_mac_sigChannelBusy
par BasicProjectNetwork.node[5].nic typename "\"org.car2x.veins.modules.nic.Nic80211p\""
par BasicProjectNetwork.node[5].nic connectionManagerName "\"connectionManager\""
par BasicProjectNetwork.node[5].veinsmobility typename "\"org.car2x.veins.modules.mobility.traci.TraCIMobility\""
par BasicProjectNetwork.node[5].veinsmobility notAffectedByHostState true
par BasicProjectNetwork.node[5].veinsmobility x 0
par BasicProjectNetwork.node[5].veinsmobility y 0
par BasicProjectNetwork.node[5].veinsmobility z 0
par BasicProjectNetwork.node[5].veinsmobility xOrientation 1
par BasicProjectNetwork.node[5].veinsmobility yOrientation 0
par BasicProjectNetwork.node[5].veinsmobility zOrientation 0
par BasicProjectNetwork.node[5].veinsmobility hostPositionOffset 0m
attr unit m
par BasicProjectNetwork.node[5].veinsmobility setHostSpeed false
par BasicProjectNetwork.node[5].veinsmobility accidentCount 0
par BasicProjectNetwork.node[5].veinsmobility accidentStart 47.0989s
attr unit s
par BasicProjectNetwork.node[5].veinsmobility accidentDuration "uniform(30s, 60s)"
attr unit s
par BasicProjectNetwork.node[5].veinsmobility accidentInterval "uniform(30s, 60s)"
attr unit s
scalar BasicProjectNetwork.node[5].veinsmobility startTime 7
scalar BasicProjectNetwork.node[5].veinsmobility totalTime 23
scalar BasicProjectNetwork.node[5].veinsmobility stopTime 30
scalar BasicProjectNetwork.node[5].veinsmobility minSpeed 1.3868953013094
scalar BasicProjectNetwork.node[5].veinsmobility maxSpeed 22.54892314362
scalar BasicProjectNetwork.node[5].veinsmobility totalDistance 286.73922199927
scalar BasicProjectNetwork.node[5].veinsmobility totalCO2Emission 134.37665488718
par BasicProjectNetwork.node[5] typename "\"org.car2x.veins.nodes.Car\""
par BasicProjectNetwork.node[5] applType "\"MyVeinsApp\""
par BasicProjectNetwork.node[5] nicType "\"Nic80211p\""
par BasicProjectNetwork.node[5] veinsmobilityType "\"org.car2x.veins.modules.mobility.traci.TraCIMobility\""
par BasicProjectNetwork.node[6].appl typename "\"org.car2x.veins.modules.application.traci.MyVeinsApp\""
par BasicProjectNetwork.node[6].appl headerLength 80bit
attr unit bit
par BasicProjectNetwork.node[6].appl sendBeacons true
par BasicProjectNetwork.node[6].appl beaconLengthBits 256bit
attr unit bit
par BasicProjectNetwork.node[6].appl beaconUserPriority 7
par BasicProjectNetwork.node[6].appl beaconInterval 1s
attr unit s
par BasicProjectNetwork.node[6].appl dataLengthBits 1024bit
attr unit bit
par BasicProjectNetwork.node[6].appl dataOnSch false
par BasicProjectNetwork.node[6].appl dataUserPriority 7
par BasicProjectNetwork.node[6].appl avoidBeaconSynchronization true
par BasicProjectNetwork.node[6].appl sendWSA false
par BasicProjectNetwork.node[6].appl wsaLengthBits 250bit
attr unit bit
par BasicProjectNetwork.node[6].appl wsaInterval 1s
attr unit s
par BasicProjectNetwork.node[6].appl appName "\"My first Veins App!\""
scalar BasicProjectNetwork.node[6].appl generatedWSMs 0
scalar BasicProjectNetwork.node[6].appl receivedWSMs 0
scalar BasicProjectNetwork.node[6].appl generatedBSMs 21
scalar BasicProjectNetwork.node[6].appl receivedBSMs 241
scalar BasicProjectNetwork.node[6].appl generatedWSAs 0
scalar BasicProjectNetwork.node[6].appl receivedWSAs 0
par BasicProjectNetwork.node[6].nic.phy80211p typename "\"org.car2x.veins.modules.phy.PhyLayer80211p\""
par BasicProjectNetwork.node[6].nic.phy80211p recordStats false
par BasicProjectNetwork.node[6].nic.phy80211p usePropagationDelay true
par BasicProjectNetwork.node[6].nic.phy80211p noiseFloor -98dBm
attr unit dBm
par BasicProjectNetwork.node[6].nic.phy80211p useNoiseFloor true
par BasicProjectNetwork.node[6].nic.phy80211p antenna "<Antenna type=\"SampledAntenna1D\" id=\"monopole\">...</Antenna> at C:/Users/tru89/Security-agent-in-VANETs-AI-Based-Intrusion-Detection/Configuration/Veins_simulation/TrafficLightProject2/simulations/\\antenna.xml:35"
par BasicProjectNetwork.node[6].nic.phy80211p antennaOffsetX 0m
attr unit m
par BasicProjectNetwork.node[6].nic.phy80211p antennaOffsetY 0m
attr unit m
par BasicProjectNetwork.node[6].nic.phy80211p antennaOffsetZ 1.895m
attr unit m
par BasicProjectNetwork.node[6].nic.phy80211p antennaOffsetYaw 0rad
attr unit rad
par BasicProjectNetwork.node[6].nic.phy80211p analogueModels "<root>...</root> at C:/Users/tru89/Security-agent-in-VANETs-AI-Based-Intrusion-Detection/Configuration/Veins_simulation/TrafficLightProject2/simulations/\\config.xml:34"
par BasicProjectNetwork.node[6].nic.phy80211p decider "<root>...</root> at C:/Users/tru89/Security-agent-in-VANETs-AI-Based-Intrusion-Detection/Configuration/Veins_simulation/TrafficLightProject2/simulations/\\config.xml:34"
par BasicProjectNetwork.node[6].nic.phy80211p minPowerLevel -110dBm
attr unit dBm
par BasicProjectNetwork.node[6].nic.phy80211p timeRXToTX 0s
attr unit s
par BasicProjectNetwork.node[6].nic.phy80211p timeRXToSleep 0s
attr unit s
par BasicProjectNetwork.node[6].nic.phy80211p timeTXToRX 0s
attr unit s
par BasicProjectNetwork.node[6].nic.phy80211p timeTXToSleep 0s
attr unit s
par BasicProjectNetwork.node[6].nic.phy80211p timeSleepToRX 0s
attr unit s
par BasicProjectNetwork.node[6].nic.phy80211p timeSleepToTX 0s
attr unit s
par BasicProjectNetwork.node[6].nic.phy80211p initialRadioState 0
par BasicProjectNetwork.node[6].nic.phy80211p radioMinAtt 1
par BasicProjectNetwork.node[6].nic.phy80211p radioMaxAtt 0
par BasicProjectNetwork.node[6].nic.phy80211p nbRadioChannels 1
par BasicProjectNetwork.node[6].nic.phy80211p initialRadioChannel 0
par BasicProjectNetwork.node[6].nic.phy80211p ccaThreshold -65dBm
attr unit dBm
par BasicProjectNetwork.node[6].nic.phy80211p collectCollisionStatistics false
par BasicProjectNetwork.node[6].nic.phy80211p allowTxDuringRx false
scalar BasicProjectNetwork.node[6].nic.phy80211p busyTime 0.0011935238095238
par BasicProjectNetwork.node[6].nic.mac1609_4 typename "\"org.car2x.veins.modules.mac.ieee80211p.Mac1609_4\""
par BasicProjectNetwork.node[6].nic.mac1609_4 notAffectedByHostState false
par BasicProjectNetwork.node[6].nic.mac1609_4 headerLength 0bit
attr unit bit
par BasicProjectNetwork.node[6].nic.mac1609_4 address "\"auto\""
par BasicProjectNetwork.node[6].nic.mac1609_4 useServiceChannel false
par BasicProjectNetwork.node[6].nic.mac1609_4 serviceChannel 1
par BasicProjectNetwork.node[6].nic.mac1609_4 bitrate 6000000bps
attr unit bps
par BasicProjectNetwork.node[6].nic.mac1609_4 syncOffset 0.0003s
attr unit s
par BasicProjectNetwork.node[6].nic.mac1609_4 txPower 20mW
attr unit mW
par BasicProjectNetwork.node[6].nic.mac1609_4 queueSize 0
par BasicProjectNetwork.node[6].nic.mac1609_4 dot11RTSThreshold 12000bit
attr unit bit
par BasicProjectNetwork.node[6].nic.mac1609_4 dot11ShortRetryLimit 7
par BasicProjectNetwork.node[6].nic.mac1609_4 dot11LongRetryLimit 4
par BasicProjectNetwork.node[6].nic.mac1609_4 ackLength 112bit
attr unit bit
par BasicProjectNetwork.node[6].nic.mac1609_4 useAcks true
par BasicProjectNetwork.node[6].nic.mac1609_4 frameErrorRate 0
par BasicProjectNetwork.node[6].nic.mac1609_4 ackErrorRate 0
scalar BasicProjectNetwork.node[6].nic.mac1609_4 ReceivedUnicastPackets 0
scalar BasicProjectNetwork.node[6].nic.mac1609_4 ReceivedBroadcasts 241
scalar BasicProjectNetwork.node[6].nic.mac1609_4 SentPackets 21
scalar BasicProjectNetwork.node[6].nic.mac1609_4 SentAcknowledgements 0
scalar BasicProjectNetwork.node[6].nic.mac1609_4 RetriesExceeded 0
scalar BasicProjectNetwork.node[6].nic.mac1609_4 SNIRLostPackets 0
scalar BasicProjectNetwork.node[6].nic.mac1609_4 RXTXLostPackets 0
scalar BasicProjectNetwork.node[6].nic.mac1609_4 TotalLostPackets 0
scalar BasicProjectNetwork.node[6].nic.mac1609_4 DroppedPacketsInMac 0
scalar BasicProjectNetwork.node[6].nic.mac1609_4 TooLittleTime 0
scalar BasicProjectNetwork.node[6].nic.mac1609_4 TimesIntoBackoff 21
scalar BasicProjectNetwork.node[6].nic.mac1609_4 SlotsBackoff 36
scalar BasicProjectNetwork.node[6].nic.mac1609_4 NumInternalContention 0
scalar BasicProjectNetwork.node[6].nic.mac1609_4 totalBusyTime 0.027269
scalar BasicProjectNetwork.node[6].nic.mac1609_4 retriesExceeded:count 0
attr recordingmode count
attr source org_car2x_veins_modules_mac_sigRetriesExceeded
scalar BasicProjectNetwork.node[6].nic.mac1609_4 sentAcks:count 0
attr recordingmode count
attr source org_car2x_veins_modules_mac_sigSentAck
scalar BasicProjectNetwork.node[6].nic.mac1609_4 sentPackets:count 21
attr recordingmode count
attr source org_car2x_veins_modules_mac_sigSentPacket
scalar BasicProjectNetwork.node[6].nic.mac1609_4 collisions:count 0
attr recordingmode count
attr source org_car2x_veins_modules_mac_sigCollision
scalar BasicProjectNetwork.node[6].nic.mac1609_4 channelBusy:timeavg 0.0012985238095238
attr recordingmode timeavg
attr source org_car2x_veins_modules_mac_sigChannelBusy
par BasicProjectNetwork.node[6].nic typename "\"org.car2x.veins.modules.nic.Nic80211p\""
par BasicProjectNetwork.node[6].nic connectionManagerName "\"connectionManager\""
par BasicProjectNetwork.node[6].veinsmobility typename "\"org.car2x.veins.modules.mobility.traci.TraCIMobility\""
par BasicProjectNetwork.node[6].veinsmobility notAffectedByHostState true
par BasicProjectNetwork.node[6].veinsmobility x 0
par BasicProjectNetwork.node[6].veinsmobility y 0
par BasicProjectNetwork.node[6].veinsmobility z 0
par BasicProjectNetwork.node[6].veinsmobility xOrientation 1
par BasicProjectNetwork.node[6].veinsmobility yOrientation 0
par BasicProjectNetwork.node[6].veinsmobility zOrientation 0
par BasicProjectNetwork.node[6].veinsmobility hostPositionOffset 0m
attr unit m
par BasicProjectNetwork.node[6].veinsmobility setHostSpeed false
par BasicProjectNetwork.node[6].veinsmobility accidentCount 0
par BasicProjectNetwork.node[6].veinsmobility accidentStart 51.3475s
attr unit s
par BasicProjectNetwork.node[6].veinsmobility accidentDuration "uniform(30s, 60s)"
attr unit s
par BasicProjectNetwork.node[6].veinsmobility accidentInterval "uniform(30s, 60s)"
attr unit s
scalar BasicProjectNetwork.node[6].veinsmobility startTime 9
scalar BasicProjectNetwork.node[6].veinsmobility totalTime 21
scalar BasicProjectNetwork.node[6].veinsmobility stopTime 30
scalar BasicProjectNetwork.node[6].veinsmobility minSpeed 2.2709876091918
scalar BasicProjectNetwork.node[6].veinsmobility maxSpeed 21.163056146822
scalar BasicProjectNetwork.node[6].veinsmobility totalDistance 340.06704281943
scalar BasicProjectNetwork.node[6].veinsmobility totalCO2Emission 109.85208386529
par BasicProjectNetwork.node[6] typename "\"org.car2x.veins.nodes.Car\""
par BasicProjectNetwork.node[6] applType "\"MyVeinsApp\""
par BasicProjectNetwork.node[6] nicType "\"Nic80211p\""
par BasicProjectNetwork.node[6] veinsmobilityType "\"org.car2x.veins.modules.mobility.traci.TraCIMobility\""
par BasicProjectNetwork.node[7].appl typename "\"org.car2x.veins.modules.application.traci.MyVeinsApp\""
par BasicProjectNetwork.node[7].appl headerLength 80bit
attr unit bit
par BasicProjectNetwork.node[7].appl sendBeacons true
par BasicProjectNetwork.node[7].appl beaconLengthBits 256bit
attr unit bit
par BasicProjectNetwork.node[7].appl beaconUserPriority 7
par BasicProjectNetwork.node[7].appl beaconInterval 1s
attr unit s
par BasicProjectNetwork.node[7].appl dataLengthBits 1024bit
attr unit bit
par BasicProjectNetwork.node[7].appl dataOnSch false
par BasicProjectNetwork.node[7].appl dataUserPriority 7
par BasicProjectNetwork.node[7].appl avoidBeaconSynchronization true
par BasicProjectNetwork.node[7].appl sendWSA false
par BasicProjectNetwork.node[7].appl wsaLengthBits 250bit
attr unit bit
par BasicProjectNetwork.node[7].appl wsaInterval 1s
attr unit s
par BasicProjectNetwork.node[7].appl appName "\"My first Veins App!\""
scalar BasicProjectNetwork.node[7].appl generatedWSMs 0
scalar BasicProjectNetwork.node[7].appl receivedWSMs 0
scalar BasicProjectNetwork.node[7].appl generatedBSMs 20
scalar BasicProjectNetwork.node[7].appl receivedBSMs 235
scalar BasicProjectNetwork.node[7].appl generatedWSAs 0
scalar BasicProjectNetwork.node[7].appl receivedWSAs 0
par BasicProjectNetwork.node[7].nic.phy80211p typename "\"org.car2x.veins.modules.phy.PhyLayer80211p\""
par BasicProjectNetwork.node[7].nic.phy80211p recordStats false
par BasicProjectNetwork.node[7].nic.phy80211p usePropagationDelay true
par BasicProjectNetwork.node[7].nic.phy80211p noiseFloor -98dBm
attr unit dBm
par BasicProjectNetwork.node[7].nic.phy80211p useNoiseFloor true
par BasicProjectNetwork.node[7].nic.phy80211p antenna "<Antenna type=\"SampledAntenna1D\" id=\"monopole\">...</Antenna> at C:/Users/tru89/Security-agent-in-VANETs-AI-Based-Intrusion-Detection/Configuration/Veins_simulation/TrafficLightProject2/simulations/\\antenna.xml:35"
par BasicProjectNetwork.node[7].nic.phy80211p antennaOffsetX 0m
attr unit m
par BasicProjectNetwork.node[7].nic.phy80211p antennaOffsetY 0m
attr unit m
par BasicProjectNetwork.node[7].nic.phy80211p antennaOffsetZ 1.895m
attr unit m
par BasicProjectNetwork.node[7].nic.phy80211p antennaOffsetYaw 0rad
attr unit rad
par BasicProjectNetwork.node[7].nic.phy80211p analogueModels "<root>...</root> at C:/Users/tru89/Security-agent-in-VANETs-AI-Based-Intrusion-Detection/Configuration/Veins_simulation/TrafficLightProject2/simulations/\\config.xml:34"
par BasicProjectNetwork.node[7].nic.phy80211p decider "<root>...</root> at C:/Users/tru89/Security-agent-in-VANETs-AI-Based-Intrusion-Detection/Configuration/Veins_simulation/TrafficLightProject2/simulations/\\config.xml:34"
par BasicProjectNetwork.node[7].nic.phy80211p minPowerLevel -110dBm
attr unit dBm
par BasicProjectNetwork.node[7].nic.phy80211p timeRXToTX 0s
attr unit s
par BasicProjectNetwork.node[7].nic.phy80211p timeRXToSleep 0s
attr unit s
par BasicProjectNetwork.node[7].nic.phy80211p timeTXToRX 0s
attr unit s
par BasicProjectNetwork.node[7].nic.phy80211p timeTXToSleep 0s
attr unit s
par BasicProjectNetwork.node[7].nic.phy80211p timeSleepToRX 0s
attr unit s
par BasicProjectNetwork.node[7].nic.phy80211p timeSleepToTX 0s
attr unit s
par BasicProjectNetwork.node[7].nic.phy80211p initialRadioState 0
par BasicProjectNetwork.node[7].nic.phy80211p radioMinAtt 1
par BasicProjectNetwork.node[7].nic.phy80211p radioMaxAtt 0
par BasicProjectNetwork.node[7].nic.phy80211p nbRadioChannels 1
par BasicProjectNetwork.node[7].nic.phy80211p initialRadioChannel 0
par BasicProjectNetwork.node[7].nic.phy80211p ccaThreshold -65dBm
attr unit dBm
par BasicProjectNetwork.node[7].nic.phy80211p collectCollisionStatistics false
par BasicProjectNetwork.node[7].nic.phy80211p allowTxDuringRx false
scalar BasicProjectNetwork.node[7].nic.phy80211p busyTime 0.001222
par BasicProjectNetwork.node[7].nic.mac1609_4 typename "\"org.car2x.veins.modules.mac.ieee80211p.Mac1609_4\""
par BasicProjectNetwork.node[7].nic.mac1609_4 notAffectedByHostState false
par BasicProjectNetwork.node[7].nic.mac1609_4 headerLength 0bit
attr unit bit
par BasicProjectNetwork.node[7].nic.mac1609_4 address "\"auto\""
par BasicProjectNetwork.node[7].nic.mac1609_4 useServiceChannel false
par BasicProjectNetwork.node[7].nic.mac1609_4 serviceChannel 1
par BasicProjectNetwork.node[7].nic.mac1609_4 bitrate 6000000bps
attr unit bps
par BasicProjectNetwork.node[7].nic.mac1609_4 syncOffset 0.0003s
attr unit s
par BasicProjectNetwork.node[7].nic.mac1609_4 txPower 20mW
attr unit mW
par BasicProjectNetwork.node[7].nic.mac1609_4 queueSize 0
par BasicProjectNetwork.node[7].nic.mac1609_4 dot11RTSThreshold 12000bit
attr unit bit
par BasicProjectNetwork.node[7].nic.mac1609_4 dot11ShortRetryLimit 7
par BasicProjectNetwork.node[7].nic.mac1609_4 dot11LongRetryLimit 4
par BasicProjectNetwork.node[7].nic.mac1609_4 ackLength 112bit
attr unit bit
par BasicProjectNetwork.node[7].nic.mac1609_4 useAcks true
par BasicProjectNetwork.node[7].nic.mac1609_4 frameErrorRate 0
par BasicProjectNetwork.node[7].nic.mac1609_4 ackErrorRate 0
scalar BasicProjectNetwork.node[7].nic.mac1609_4 ReceivedUnicastPackets 0
scalar BasicProjectNetwork.node[7].nic.mac1609_4 ReceivedBroadcasts 235
scalar BasicProjectNetwork.node[7].nic.mac1609_4 SentPackets 20
scalar BasicProjectNetwork.node[7].nic.mac1609_4 SentAcknowledgements 0
scalar BasicProjectNetwork.node[7].nic.mac1609_4 RetriesExceeded 0
scalar BasicProjectNetwork.node[7].nic.mac1609_4 SNIRLostPackets 0
scalar BasicProjectNetwork.node[7].nic.mac1609_4 RXTXLostPackets 0
scalar BasicProjectNetwork.node[7].nic.mac1609_4 TotalLostPackets 0
scalar BasicProjectNetwork.node[7].nic.mac1609_4 DroppedPacketsInMac 0
scalar BasicProjectNetwork.node[7].nic.mac1609_4 TooLittleTime 0
scalar BasicProjectNetwork.node[7].nic.mac1609_4 TimesIntoBackoff 20
scalar BasicProjectNetwork.node[7].nic.mac1609_4 SlotsBackoff 37
scalar BasicProjectNetwork.node[7].nic.mac1609_4 NumInternalContention 0
scalar BasicProjectNetwork.node[7].nic.mac1609_4 totalBusyTime 0.02654
scalar BasicProjectNetwork.node[7].nic.mac1609_4 retriesExceeded:count 0
attr recordingmode count
attr source org_car2x_veins_modules_mac_sigRetriesExceeded
scalar BasicProjectNetwork.node[7].nic.mac1609_4 sentAcks:count 0
attr recordingmode count
attr source org_car2x_veins_modules_mac_sigSentAck
scalar BasicProjectNetwork.node[7].nic.mac1609_4 sentPackets:count 20
attr recordingmode count
attr source org_car2x_veins_modules_mac_sigSentPacket
scalar BasicProjectNetwork.node[7].nic.mac1609_4 collisions:count 0
attr recordingmode count
attr source org_car2x_veins_modules_mac_sigCollision
scalar BasicProjectNetwork.node[7].nic.mac1609_4 channelBusy:timeavg 0.001327
attr recordingmode timeavg
attr source org_car2x_veins_modules_mac_sigChannelBusy
par BasicProjectNetwork.node[7].nic typename "\"org.car2x.veins.modules.nic.Nic80211p\""
par BasicProjectNetwork.node[7].nic connectionManagerName "\"connectionManager\""
par BasicProjectNetwork.node[7].veinsmobility typename "\"org.car2x.veins.modules.mobility.traci.TraCIMobility\""
par BasicProjectNetwork.node[7].veinsmobility notAffectedByHostState true
par BasicProjectNetwork.node[7].veinsmobility x 0
par BasicProjectNetwork.node[7].veinsmobility y 0
par BasicProjectNetwork.node[7].veinsmobility z 0
par BasicProjectNetwork.node[7].veinsmobility xOrientation 1
par BasicProjectNetwork.node[7].veinsmobility yOrientation 0
par BasicProjectNetwork.node[7].veinsmobility zOrientation 0
par BasicProjectNetwork.node[7].veinsmobility hostPositionOffset 0m
attr unit m
par BasicProjectNetwork.node[7].veinsmobility setHostSpeed false
par BasicProjectNetwork.node[7].veinsmobility accidentCount 0
par BasicProjectNetwork.node[7].veinsmobility accidentStart 32.433s
attr unit s
par BasicProjectNetwork.node[7].veinsmobility accidentDuration "uniform(30s, 60s)"
attr unit s
par BasicProjectNetwork.node[7].veinsmobility accidentInterval "uniform(30s, 60s)"
attr unit s
scalar BasicProjectNetwork.node[7].veinsmobility startTime 10
scalar BasicProjectNetwork.node[7].veinsmobility totalTime 20
scalar BasicProjectNetwork.node[7].veinsmobility stopTime 30
scalar BasicProjectNetwork.node[7].veinsmobility minSpeed 2.2793558065081
scalar BasicProjectNetwork.node[7].veinsmobility maxSpeed 17.965280637564
scalar BasicProjectNetwork.node[7].veinsmobility totalDistance 243.11078031369
scalar BasicProjectNetwork.node[7].veinsmobility totalCO2Emission 103.33175822121
par BasicProjectNetwork.node[7] typename "\"org.car2x.veins.nodes.Car\""
par BasicProjectNetwork.node[7] applType "\"MyVeinsApp\""
par BasicProjectNetwork.node[7] nicType "\"Nic80211p\""
par BasicProjectNetwork.node[7] veinsmobilityType "\"org.car2x.veins.modules.mobility.traci.TraCIMobility\""
par BasicProjectNetwork.node[8].appl typename "\"org.car2x.veins.modules.application.traci.MyVeinsApp\""
par BasicProjectNetwork.node[8].appl headerLength 80bit
attr unit bit
par BasicProjectNetwork.node[8].appl sendBeacons true
par BasicProjectNetwork.node[8].appl beaconLengthBits 256bit
attr unit bit
par BasicProjectNetwork.node[8].appl beaconUserPriority 7
par BasicProjectNetwork.node[8].appl beaconInterval 1s
attr unit s
par BasicProjectNetwork.node[8].appl dataLengthBits 1024bit
attr unit bit
par BasicProjectNetwork.node[8].appl dataOnSch false
par BasicProjectNetwork.node[8].appl dataUserPriority 7
par BasicProjectNetwork.node[8].appl avoidBeaconSynchronization true
par BasicProjectNetwork.node[8].appl sendWSA false
par BasicProjectNetwork.node[8].appl wsaLengthBits 250bit
attr unit bit
par BasicProjectNetwork.node[8].appl wsaInterval 1s
attr unit s
par BasicProjectNetwork.node[8].appl appName "\"My first Veins App!\""
scalar BasicProjectNetwork.node[8].appl generatedWSMs 0
scalar BasicProjectNetwork.node[8].appl receivedWSMs 0
scalar BasicProjectNetwork.node[8].appl generatedBSMs 17
scalar BasicProjectNetwork.node[8].appl receivedBSMs 214
scalar BasicProjectNetwork.node[8].appl generatedWSAs 0
scalar BasicProjectNetwork.node[8].appl receivedWSAs 0
par BasicProjectNetwork.node[8].nic.phy80211p typename "\"org.car2x.veins.modules.phy.PhyLayer80211p\""
par BasicProjectNetwork.node[8].nic.phy80211p recordStats false
par BasicProjectNetwork.node[8].nic.phy80211p usePropagationDelay true
par BasicProjectNetwork.node[8].nic.phy80211p noiseFloor -98dBm
attr unit dBm
par BasicProjectNetwork.node[8].nic.phy80211p useNoiseFloor true
par BasicProjectNetwork.node[8].nic.phy80211p antenna "<Antenna type=\"SampledAntenna1D\" id=\"monopole\">...</Antenna> at C:/Users/tru89/Security-agent-in-VANETs-AI-Based-Intrusion-Detection/Configuration/Veins_simulation/TrafficLightProject2/simulations/\\antenna.xml:35"
par BasicProjectNetwork.node[8].nic.phy80211p antennaOffsetX 0m
attr unit m
par BasicProjectNetwork.node[8].nic.phy80211p antennaOffsetY 0m
attr unit m
par BasicProjectNetwork.node[8].nic.phy80211p antennaOffsetZ 1.895m
attr unit m
par BasicProjectNetwork.node[8].nic.phy80211p antennaOffsetYaw 0rad
attr unit rad
par BasicProjectNetwork.node[8].nic.phy80211p analogueModels "<root>...</root> at C:/Users/tru89/Security-agent-in-VANETs-AI-Based-Intrusion-Detection/Configuration/Veins_simulation/TrafficLightProject2/simulations/\\config.xml:34"
par BasicProjectNetwork.node[8].nic.phy80211p decider "<root>...</root> at C:/Users/tru89/Security-agent-in-VANETs-AI-Based-Intrusion-Detection/Configuration/Veins_simulation/TrafficLightProject2/simulations/\\config.xml:34"
par BasicProjectNetwork.node[8].nic.phy80211p minPowerLevel -110dBm
attr unit dBm
par BasicProjectNetwork.node[8].nic.phy80211p timeRXToTX 0s
attr unit s
par BasicProjectNetwork.node[8].nic.phy80211p timeRXToSleep 0s
[...]
scalar BasicProjectNetwork.node[17].nic.mac1609_4 RetriesExceeded 0
scalar BasicProjectNetwork.node[17].nic.mac1609_4 SNIRLostPackets 0
scalar BasicProjectNetwork.node[17].nic.mac1609_4 RXTXLostPackets 0
scalar BasicProjectNetwork.node[17].nic.mac1609_4 TotalLostPackets 0
scalar BasicProjectNetwork.node[17].nic.mac1609_4 DroppedPacketsInMac 0
scalar BasicProjectNetwork.node[17].nic.mac1609_4 TooLittleTime 0
scalar BasicProjectNetwork.node[17].nic.mac1609_4 TimesIntoBackoff 2
scalar BasicProjectNetwork.node[17].nic.mac1609_4 SlotsBackoff 3
scalar BasicProjectNetwork.node[17].nic.mac1609_4 NumInternalContention 0
scalar BasicProjectNetwork.node[17].nic.mac1609_4 totalBusyTime 0.003434
scalar BasicProjectNetwork.node[17].nic.mac1609_4 retriesExceeded:count 0
attr recordingmode count
attr source org_car2x_veins_modules_mac_sigRetriesExceeded
scalar BasicProjectNetwork.node[17].nic.mac1609_4 sentAcks:count 0
attr recordingmode count
attr source org_car2x_veins_modules_mac_sigSentAck
scalar BasicProjectNetwork.node[17].nic.mac1609_4 sentPackets:count 2
attr recordingmode count
attr source org_car2x_veins_modules_mac_sigSentPacket
scalar BasicProjectNetwork.node[17].nic.mac1609_4 collisions:count 0
attr recordingmode count
attr source org_car2x_veins_modules_mac_sigCollision
scalar BasicProjectNetwork.node[17].nic.mac1609_4 channelBusy:timeavg 0.001717
attr recordingmode timeavg
attr source org_car2x_veins_modules_mac_sigChannelBusy
par BasicProjectNetwork.node[17].nic typename "\"org.car2x.veins.modules.nic.Nic80211p\""
par BasicProjectNetwork.node[17].nic connectionManagerName "\"connectionManager\""
par BasicProjectNetwork.node[17].veinsmobility typename "\"org.car2x.veins.modules.mobility.traci.TraCIMobility\""
par BasicProjectNetwork.node[17].veinsmobility notAffectedByHostState true
par BasicProjectNetwork.node[17].veinsmobility x 0
par BasicProjectNetwork.node[17].veinsmobility y 0
par BasicProjectNetwork.node[17].veinsmobility z 0
par BasicProjectNetwork.node[17].veinsmobility xOrientation 1
par BasicProjectNetwork.node[17].veinsmobility yOrientation 0
par BasicProjectNetwork.node[17].veinsmobility zOrientation 0
par BasicProjectNetwork.node[17].veinsmobility hostPositionOffset 0m
attr unit m
par BasicProjectNetwork.node[17].veinsmobility setHostSpeed false
par BasicProjectNetwork.node[17].veinsmobility accidentCount 0
par BasicProjectNetwork.node[17].veinsmobility accidentStart 49.9293s
attr unit s
par BasicProjectNetwork.node[17].veinsmobility accidentDuration "uniform(30s, 60s)"
attr unit s
par BasicProjectNetwork.node[17].veinsmobility accidentInterval "uniform(30s, 60s)"
attr unit s
scalar BasicProjectNetwork.node[17].veinsmobility startTime 28
scalar BasicProjectNetwork.node[17].veinsmobility totalTime 2
scalar BasicProjectNetwork.node[17].veinsmobility stopTime 30
scalar BasicProjectNetwork.node[17].veinsmobility minSpeed 1.4510590608465
scalar BasicProjectNetwork.node[17].veinsmobility maxSpeed 2.9770817369223
scalar BasicProjectNetwork.node[17].veinsmobility totalDistance 4.415661527179
scalar BasicProjectNetwork.node[17].veinsmobility totalCO2Emission 2.3509376365356
par BasicProjectNetwork.node[17] typename "\"org.car2x.veins.nodes.Car\""
par BasicProjectNetwork.node[17] applType "\"MyVeinsApp\""
par BasicProjectNetwork.node[17] nicType "\"Nic80211p\""
par BasicProjectNetwork.node[17] veinsmobilityType "\"org.car2x.veins.modules.mobility.traci.TraCIMobility\""
par BasicProjectNetwork.node[18].appl typename "\"org.car2x.veins.modules.application.traci.MyVeinsApp\""
par BasicProjectNetwork.node[18].appl headerLength 80bit
attr unit bit
par BasicProjectNetwork.node[18].appl sendBeacons true
par BasicProjectNetwork.node[18].appl beaconLengthBits 256bit
attr unit bit
par BasicProjectNetwork.node[18].appl beaconUserPriority 7
par BasicProjectNetwork.node[18].appl beaconInterval 1s
attr unit s
par BasicProjectNetwork.node[18].appl dataLengthBits 1024bit
attr unit bit
par BasicProjectNetwork.node[18].appl dataOnSch false
par BasicProjectNetwork.node[18].appl dataUserPriority 7
par BasicProjectNetwork.node[18].appl avoidBeaconSynchronization true
par BasicProjectNetwork.node[18].appl sendWSA false
par BasicProjectNetwork.node[18].appl wsaLengthBits 250bit
attr unit bit
par BasicProjectNetwork.node[18].appl wsaInterval 1s
attr unit s
par BasicProjectNetwork.node[18].appl appName "\"My first Veins App!\""
scalar BasicProjectNetwork.node[18].appl generatedWSMs 0
scalar BasicProjectNetwork.node[18].appl receivedWSMs 0
scalar BasicProjectNetwork.node[18].appl generatedBSMs 1
scalar BasicProjectNetwork.node[18].appl receivedBSMs 15
scalar BasicProjectNetwork.node[18].appl generatedWSAs 0
scalar BasicProjectNetwork.node[18].appl receivedWSAs 0
par BasicProjectNetwork.node[18].nic.phy80211p typename "\"org.car2x.veins.modules.phy.PhyLayer80211p\""
par BasicProjectNetwork.node[18].nic.phy80211p recordStats false
par BasicProjectNetwork.node[18].nic.phy80211p usePropagationDelay true
par BasicProjectNetwork.node[18].nic.phy80211p noiseFloor -98dBm
attr unit dBm
par BasicProjectNetwork.node[18].nic.phy80211p useNoiseFloor true
par BasicProjectNetwork.node[18].nic.phy80211p antenna "<Antenna type=\"SampledAntenna1D\" id=\"monopole\">...</Antenna> at C:/Users/tru89/Security-agent-in-VANETs-AI-Based-Intrusion-Detection/Configuration/Veins_simulation/TrafficLightProject2/simulations/\\antenna.xml:35"
par BasicProjectNetwork.node[18].nic.phy80211p antennaOffsetX 0m
attr unit m
par BasicProjectNetwork.node[18].nic.phy80211p antennaOffsetY 0m
attr unit m
par BasicProjectNetwork.node[18].nic.phy80211p antennaOffsetZ 1.895m
attr unit m
par BasicProjectNetwork.node[18].nic.phy80211p antennaOffsetYaw 0rad
attr unit rad
par BasicProjectNetwork.node[18].nic.phy80211p analogueModels "<root>...</root> at C:/Users/tru89/Security-agent-in-VANETs-AI-Based-Intrusion-Detection/Configuration/Veins_simulation/TrafficLightProject2/simulations/\\config.xml:34"
par BasicProjectNetwork.node[18].nic.phy80211p decider "<root>...</root> at C:/Users/tru89/Security-agent-in-VANETs-AI-Based-Intrusion-Detection/Configuration/Veins_simulation/TrafficLightProject2/simulations/\\config.xml:34"
par BasicProjectNetwork.node[18].nic.phy80211p minPowerLevel -110dBm
attr unit dBm
par BasicProjectNetwork.node[18].nic.phy80211p timeRXToTX 0s
attr unit s
par BasicProjectNetwork.node[18].nic.phy80211p timeRXToSleep 0s
attr unit s
par BasicProjectNetwork.node[18].nic.phy80211p timeTXToRX 0s
attr unit s
par BasicProjectNetwork.node[18].nic.phy80211p timeTXToSleep 0s
attr unit s
par BasicProjectNetwork.node[18].nic.phy80211p timeSleepToRX 0s
attr unit s
par BasicProjectNetwork.node[18].nic.phy80211p timeSleepToTX 0s
attr unit s
par BasicProjectNetwork.node[18].nic.phy80211p initialRadioState 0
par BasicProjectNetwork.node[18].nic.phy80211p radioMinAtt 1
par BasicProjectNetwork.node[18].nic.phy80211p radioMaxAtt 0
par BasicProjectNetwork.node[18].nic.phy80211p nbRadioChannels 1
par BasicProjectNetwork.node[18].nic.phy80211p initialRadioChannel 0
par BasicProjectNetwork.node[18].nic.phy80211p ccaThreshold -65dBm
attr unit dBm
par BasicProjectNetwork.node[18].nic.phy80211p collectCollisionStatistics false
par BasicProjectNetwork.node[18].nic.phy80211p allowTxDuringRx false
scalar BasicProjectNetwork.node[18].nic.phy80211p busyTime 0.00156
par BasicProjectNetwork.node[18].nic.mac1609_4 typename "\"org.car2x.veins.modules.mac.ieee80211p.Mac1609_4\""
par BasicProjectNetwork.node[18].nic.mac1609_4 notAffectedByHostState false
par BasicProjectNetwork.node[18].nic.mac1609_4 headerLength 0bit
attr unit bit
par BasicProjectNetwork.node[18].nic.mac1609_4 address "\"auto\""
par BasicProjectNetwork.node[18].nic.mac1609_4 useServiceChannel false
par BasicProjectNetwork.node[18].nic.mac1609_4 serviceChannel 1
par BasicProjectNetwork.node[18].nic.mac1609_4 bitrate 6000000bps
attr unit bps
par BasicProjectNetwork.node[18].nic.mac1609_4 syncOffset 0.0003s
attr unit s
par BasicProjectNetwork.node[18].nic.mac1609_4 txPower 20mW
attr unit mW
par BasicProjectNetwork.node[18].nic.mac1609_4 queueSize 0
par BasicProjectNetwork.node[18].nic.mac1609_4 dot11RTSThreshold 12000bit
attr unit bit
par BasicProjectNetwork.node[18].nic.mac1609_4 dot11ShortRetryLimit 7
par BasicProjectNetwork.node[18].nic.mac1609_4 dot11LongRetryLimit 4
par BasicProjectNetwork.node[18].nic.mac1609_4 ackLength 112bit
attr unit bit
par BasicProjectNetwork.node[18].nic.mac1609_4 useAcks true
par BasicProjectNetwork.node[18].nic.mac1609_4 frameErrorRate 0
par BasicProjectNetwork.node[18].nic.mac1609_4 ackErrorRate 0
scalar BasicProjectNetwork.node[18].nic.mac1609_4 ReceivedUnicastPackets 0
scalar BasicProjectNetwork.node[18].nic.mac1609_4 ReceivedBroadcasts 15
scalar BasicProjectNetwork.node[18].nic.mac1609_4 SentPackets 1
scalar BasicProjectNetwork.node[18].nic.mac1609_4 SentAcknowledgements 0
scalar BasicProjectNetwork.node[18].nic.mac1609_4 RetriesExceeded 0
scalar BasicProjectNetwork.node[18].nic.mac1609_4 SNIRLostPackets 0
scalar BasicProjectNetwork.node[18].nic.mac1609_4 RXTXLostPackets 0
scalar BasicProjectNetwork.node[18].nic.mac1609_4 TotalLostPackets 0
scalar BasicProjectNetwork.node[18].nic.mac1609_4 DroppedPacketsInMac 0
scalar BasicProjectNetwork.node[18].nic.mac1609_4 TooLittleTime 0
scalar BasicProjectNetwork.node[18].nic.mac1609_4 TimesIntoBackoff 1
scalar BasicProjectNetwork.node[18].nic.mac1609_4 SlotsBackoff 0
scalar BasicProjectNetwork.node[18].nic.mac1609_4 NumInternalContention 0
scalar BasicProjectNetwork.node[18].nic.mac1609_4 totalBusyTime 0.001665
scalar BasicProjectNetwork.node[18].nic.mac1609_4 retriesExceeded:count 0
attr recordingmode count
attr source org_car2x_veins_modules_mac_sigRetriesExceeded
scalar BasicProjectNetwork.node[18].nic.mac1609_4 sentAcks:count 0
attr recordingmode count
attr source org_car2x_veins_modules_mac_sigSentAck
scalar BasicProjectNetwork.node[18].nic.mac1609_4 sentPackets:count 1
attr recordingmode count
attr source org_car2x_veins_modules_mac_sigSentPacket
scalar BasicProjectNetwork.node[18].nic.mac1609_4 collisions:count 0
attr recordingmode count
attr source org_car2x_veins_modules_mac_sigCollision
scalar BasicProjectNetwork.node[18].nic.mac1609_4 channelBusy:timeavg 0.001665
attr recordingmode timeavg
attr source org_car2x_veins_modules_mac_sigChannelBusy
par BasicProjectNetwork.node[18].nic typename "\"org.car2x.veins.modules.nic.Nic80211p\""
par BasicProjectNetwork.node[18].nic connectionManagerName "\"connectionManager\""
par BasicProjectNetwork.node[18].veinsmobility typename "\"org.car2x.veins.modules.mobility.traci.TraCIMobility\""
par BasicProjectNetwork.node[18].veinsmobility notAffectedByHostState true
par BasicProjectNetwork.node[18].veinsmobility x 0
par BasicProjectNetwork.node[18].veinsmobility y 0
par BasicProjectNetwork.node[18].veinsmobility z 0
par BasicProjectNetwork.node[18].veinsmobility xOrientation 1
par BasicProjectNetwork.node[18].veinsmobility yOrientation 0
par BasicProjectNetwork.node[18].veinsmobility zOrientation 0
par BasicProjectNetwork.node[18].veinsmobility hostPositionOffset 0m
attr unit m
par BasicProjectNetwork.node[18].veinsmobility setHostSpeed false
par BasicProjectNetwork.node[18].veinsmobility accidentCount 0
par BasicProjectNetwork.node[18].veinsmobility accidentStart 41.446s
attr unit s
par BasicProjectNetwork.node[18].veinsmobility accidentDuration "uniform(30s, 60s)"
attr unit s
par BasicProjectNetwork.node[18].veinsmobility accidentInterval "uniform(30s, 60s)"
attr unit s
scalar BasicProjectNetwork.node[18].veinsmobility startTime 29
scalar BasicProjectNetwork.node[18].veinsmobility totalTime 1
scalar BasicProjectNetwork.node[18].veinsmobility stopTime 30
scalar BasicProjectNetwork.node[18].veinsmobility minSpeed 1.45977265127
scalar BasicProjectNetwork.node[18].veinsmobility maxSpeed 1.45977265127
scalar BasicProjectNetwork.node[18].veinsmobility totalDistance 1.4594863523517
scalar BasicProjectNetwork.node[18].veinsmobility totalCO2Emission 0
par BasicProjectNetwork.node[18] typename "\"org.car2x.veins.nodes.Car\""
par BasicProjectNetwork.node[18] applType "\"MyVeinsApp\""
par BasicProjectNetwork.node[18] nicType "\"Nic80211p\""
par BasicProjectNetwork.node[18] veinsmobilityType "\"org.car2x.veins.modules.mobility.traci.TraCIMobility\""
par BasicProjectNetwork.rsu[0].appl typename "\"org.car2x.veins.modules.application.traci.TraCIDemoRSU11p\""
par BasicProjectNetwork.rsu[0].appl headerLength 80bit
attr unit bit
par BasicProjectNetwork.rsu[0].appl sendBeacons true
par BasicProjectNetwork.rsu[0].appl beaconLengthBits 256bit
attr unit bit
par BasicProjectNetwork.rsu[0].appl beaconUserPriority 7
par BasicProjectNetwork.rsu[0].appl beaconInterval 1s
attr unit s
par BasicProjectNetwork.rsu[0].appl dataLengthBits 1024bit
attr unit bit
par BasicProjectNetwork.rsu[0].appl dataOnSch false
par BasicProjectNetwork.rsu[0].appl dataUserPriority 5
par BasicProjectNetwork.rsu[0].appl avoidBeaconSynchronization true
par BasicProjectNetwork.rsu[0].appl sendWSA false
par BasicProjectNetwork.rsu[0].appl wsaLengthBits 250bit
attr unit bit
par BasicProjectNetwork.rsu[0].appl wsaInterval 1s
attr unit s
scalar BasicProjectNetwork.rsu[0].appl generatedWSMs 0
scalar BasicProjectNetwork.rsu[0].appl receivedWSMs 0
scalar BasicProjectNetwork.rsu[0].appl generatedBSMs 30
scalar BasicProjectNetwork.rsu[0].appl receivedBSMs 0
scalar BasicProjectNetwork.rsu[0].appl generatedWSAs 0
scalar BasicProjectNetwork.rsu[0].appl receivedWSAs 0
par BasicProjectNetwork.rsu[0].nic.phy80211p typename "\"org.car2x.veins.modules.phy.PhyLayer80211p\""
par BasicProjectNetwork.rsu[0].nic.phy80211p recordStats false
par BasicProjectNetwork.rsu[0].nic.phy80211p usePropagationDelay true
par BasicProjectNetwork.rsu[0].nic.phy80211p noiseFloor -98dBm
attr unit dBm
par BasicProjectNetwork.rsu[0].nic.phy80211p useNoiseFloor true
par BasicProjectNetwork.rsu[0].nic.phy80211p antenna "<Antenna type=\"SampledAntenna1D\" id=\"monopole\">...</Antenna> at C:/Users/tru89/Security-agent-in-VANETs-AI-Based-Intrusion-Detection/Configuration/Veins_simulation/TrafficLightProject2/simulations/\\antenna.xml:35"
par BasicProjectNetwork.rsu[0].nic.phy80211p antennaOffsetX 0m
attr unit m
par BasicProjectNetwork.rsu[0].nic.phy80211p antennaOffsetY 0m
attr unit m
par BasicProjectNetwork.rsu[0].nic.phy80211p antennaOffsetZ 0m
attr unit m
par BasicProjectNetwork.rsu[0].nic.phy80211p antennaOffsetYaw 0rad
attr unit rad
par BasicProjectNetwork.rsu[0].nic.phy80211p analogueModels "<root>...</root> at C:/Users/tru89/Security-agent-in-VANETs-AI-Based-Intrusion-Detection/Configuration/Veins_simulation/TrafficLightProject2/simulations/\\config.xml:34"
par BasicProjectNetwork.rsu[0].nic.phy80211p decider "<root>...</root> at C:/Users/tru89/Security-agent-in-VANETs-AI-Based-Intrusion-Detection/Configuration/Veins_simulation/TrafficLightProject2/simulations/\\config.xml:34"
par BasicProjectNetwork.rsu[0].nic.phy80211p minPowerLevel -110dBm
attr unit dBm
par BasicProjectNetwork.rsu[0].nic.phy80211p timeRXToTX 0s
attr unit s
par BasicProjectNetwork.rsu[0].nic.phy80211p timeRXToSleep 0s
attr unit s
par BasicProjectNetwork.rsu[0].nic.phy80211p timeTXToRX 0s
attr unit s
par BasicProjectNetwork.rsu[0].nic.phy80211p timeTXToSleep 0s
attr unit s
par BasicProjectNetwork.rsu[0].nic.phy80211p timeSleepToRX 0s
attr unit s
par BasicProjectNetwork.rsu[0].nic.phy80211p timeSleepToTX 0s
attr unit s
par BasicProjectNetwork.rsu[0].nic.phy80211p initialRadioState 0
par BasicProjectNetwork.rsu[0].nic.phy80211p radioMinAtt 1
par BasicProjectNetwork.rsu[0].nic.phy80211p radioMaxAtt 0
par BasicProjectNetwork.rsu[0].nic.phy80211p nbRadioChannels 1
par BasicProjectNetwork.rsu[0].nic.phy80211p initialRadioChannel 0
par BasicProjectNetwork.rsu[0].nic.phy80211p ccaThreshold -65dBm
attr unit dBm
par BasicProjectNetwork.rsu[0].nic.phy80211p collectCollisionStatistics false
par BasicProjectNetwork.rsu[0].nic.phy80211p allowTxDuringRx false
scalar BasicProjectNetwork.rsu[0].nic.phy80211p busyTime 0
par BasicProjectNetwork.rsu[0].nic.mac1609_4 typename "\"org.car2x.veins.modules.mac.ieee80211p.Mac1609_4\""
par BasicProjectNetwork.rsu[0].nic.mac1609_4 notAffectedByHostState false
par BasicProjectNetwork.rsu[0].nic.mac1609_4 headerLength 0bit
attr unit bit
par BasicProjectNetwork.rsu[0].nic.mac1609_4 address "\"auto\""
par BasicProjectNetwork.rsu[0].nic.mac1609_4 useServiceChannel false
par BasicProjectNetwork.rsu[0].nic.mac1609_4 serviceChannel 1
par BasicProjectNetwork.rsu[0].nic.mac1609_4 bitrate 6000000bps
attr unit bps
par BasicProjectNetwork.rsu[0].nic.mac1609_4 syncOffset 0.0003s
attr unit s
par BasicProjectNetwork.rsu[0].nic.mac1609_4 txPower 20mW
attr unit mW
par BasicProjectNetwork.rsu[0].nic.mac1609_4 queueSize 0
par BasicProjectNetwork.rsu[0].nic.mac1609_4 dot11RTSThreshold 12000bit
attr unit bit
par BasicProjectNetwork.rsu[0].nic.mac1609_4 dot11ShortRetryLimit 7
par BasicProjectNetwork.rsu[0].nic.mac1609_4 dot11LongRetryLimit 4
par BasicProjectNetwork.rsu[0].nic.mac1609_4 ackLength 112bit
attr unit bit
par BasicProjectNetwork.rsu[0].nic.mac1609_4 useAcks false
par BasicProjectNetwork.rsu[0].nic.mac1609_4 frameErrorRate 0
par BasicProjectNetwork.rsu[0].nic.mac1609_4 ackErrorRate 0
scalar BasicProjectNetwork.rsu[0].nic.mac1609_4 ReceivedUnicastPackets 0
scalar BasicProjectNetwork.rsu[0].nic.mac1609_4 ReceivedBroadcasts 0
scalar BasicProjectNetwork.rsu[0].nic.mac1609_4 SentPackets 30
scalar BasicProjectNetwork.rsu[0].nic.mac1609_4 SentAcknowledgements 0
scalar BasicProjectNetwork.rsu[0].nic.mac1609_4 RetriesExceeded 0
scalar BasicProjectNetwork.rsu[0].nic.mac1609_4 SNIRLostPackets 0
scalar BasicProjectNetwork.rsu[0].nic.mac1609_4 RXTXLostPackets 0
scalar BasicProjectNetwork.rsu[0].nic.mac1609_4 TotalLostPackets 0
scalar BasicProjectNetwork.rsu[0].nic.mac1609_4 DroppedPacketsInMac 0
scalar BasicProjectNetwork.rsu[0].nic.mac1609_4 TooLittleTime 0
scalar BasicProjectNetwork.rsu[0].nic.mac1609_4 TimesIntoBackoff 30
scalar BasicProjectNetwork.rsu[0].nic.mac1609_4 SlotsBackoff 42
scalar BasicProjectNetwork.rsu[0].nic.mac1609_4 NumInternalContention 0
scalar BasicProjectNetwork.rsu[0].nic.mac1609_4 totalBusyTime 0.00315
scalar BasicProjectNetwork.rsu[0].nic.mac1609_4 retriesExceeded:count 0
attr recordingmode count
attr source org_car2x_veins_modules_mac_sigRetriesExceeded
scalar BasicProjectNetwork.rsu[0].nic.mac1609_4 sentAcks:count 0
attr recordingmode count
attr source org_car2x_veins_modules_mac_sigSentAck
scalar BasicProjectNetwork.rsu[0].nic.mac1609_4 sentPackets:count 30
attr recordingmode count
attr source org_car2x_veins_modules_mac_sigSentPacket
scalar BasicProjectNetwork.rsu[0].nic.mac1609_4 collisions:count 0
attr recordingmode count
attr source org_car2x_veins_modules_mac_sigCollision
scalar BasicProjectNetwork.rsu[0].nic.mac1609_4 channelBusy:timeavg 0.000105
attr recordingmode timeavg
attr source org_car2x_veins_modules_mac_sigChannelBusy
par BasicProjectNetwork.rsu[0].nic typename "\"org.car2x.veins.modules.nic.Nic80211p\""
par BasicProjectNetwork.rsu[0].nic connectionManagerName "\"connectionManager\""
par BasicProjectNetwork.rsu[0].mobility typename "\"org.car2x.veins.base.modules.BaseMobility\""
par BasicProjectNetwork.rsu[0].mobility notAffectedByHostState true
par BasicProjectNetwork.rsu[0].mobility x 2000
par BasicProjectNetwork.rsu[0].mobility y 2000
par BasicProjectNetwork.rsu[0].mobility z 3
par BasicProjectNetwork.rsu[0].mobility xOrientation 1
par BasicProjectNetwork.rsu[0].mobility yOrientation 0
par BasicProjectNetwork.rsu[0].mobility zOrientation 0
par BasicProjectNetwork.rsu[0] typename "\"org.car2x.veins.nodes.RSU\""
par BasicProjectNetwork.rsu[0] applType "\"TraCIDemoRSU11p\""
par BasicProjectNetwork.rsu[0] nicType "\"Nic80211p\""
par BasicProjectNetwork typename "\"BasicProjectNetwork\""
par BasicProjectNetwork playgroundSizeX 8000m
attr unit m
par BasicProjectNetwork playgroundSizeY 10000m
attr unit m
par BasicProjectNetwork playgroundSizeZ 50m
attr unit m

