version 3
run General-0-20250630-10:33:24-19740
attr configname General
attr datetime 20250630-10:33:24
attr datetimef 20250630-103324
attr experiment General
attr inifile omnetpp.ini
attr iterationvars ""
attr iterationvarsd ""
attr iterationvarsf ""
attr measurement ""
attr network BasicProjectNetwork
attr processid 19740
attr repetition 0
attr replication #0
attr resultdir results
attr runnumber 0
attr seedset 0
config image-path ../../../../../veins-veins-5.3.1/images
config cmdenv-express-mode true
config cmdenv-autoflush true
config cmdenv-status-frequency 1s
config **.cmdenv-log-level debug
config image-path ../../images
config network BasicProjectNetwork
config debug-on-errors true
config print-undisposed true
config sim-time-limit 30s
config **.scalar-recording true
config **.vector-recording true
config *.playgroundSizeX 8000m
config *.playgroundSizeY 10000m
config *.playgroundSizeZ 50m
config *.annotations.draw true
config *.obstacles.debug false
config *.manager.updateInterval 1s
config *.manager.host "\"localhost\""
config *.manager.port 9999
config *.manager.autoShutdown true
config *.manager.launchConfig "xmldoc(\"launchd.xml\")"
config *.manager.trafficLightModuleType "\"org.car2x.veins.nodes.TrafficLight\""
config *.manager.trafficLightFilter "\"gneJ1\""
config *.tls[*].mobility.x 0
config *.tls[*].mobility.y 0
config *.tls[*].mobility.z 3
config *.tls[*].@display "\"p=1000,1000;i=misc/trafficlight\""
config *.tls[*].applType "\"org.car2x.veins.modules.application.traci.TraCIDemoTrafficLightApp\""
config *.tls[*].logicType "\"org.car2x.veins.modules.world.traci.trafficLight.logics.TraCITrafficLightSimpleLogic\""
config *.rsu[0].mobility.x 2000
config *.rsu[0].mobility.y 2000
config *.rsu[0].mobility.z 3
config *.rsu[*].applType "\"TraCIDemoRSU11p\""
config *.rsu[*].appl.headerLength "80 bit"
config *.rsu[*].appl.sendBeacons true
config *.rsu[*].appl.dataOnSch false
config *.rsu[*].appl.beaconInterval 1s
config *.rsu[*].appl.beaconUserPriority 7
config *.rsu[*].appl.dataUserPriority 5
config *.rsu[*].nic.phy80211p.antennaOffsetZ "0 m"
config *.connectionManager.sendDirect true
config *.connectionManager.maxInterfDist 2600m
config *.connectionManager.drawMaxIntfDist false
config *.**.nic.mac1609_4.useServiceChannel false
config *.**.nic.mac16094.useServiceChannel false
config *.**.nic.mac1609_4.txPower 20mW
config *.**.nic.mac1609_4.bitrate 6Mbps
config *.**.nic.phy80211p.minPowerLevel -110dBm
config *.**.nic.phy80211p.useNoiseFloor true
config *.**.nic.phy80211p.noiseFloor -98dBm
config *.**.nic.phy80211p.decider "xmldoc(\"config.xml\")"
config *.**.nic.phy80211p.analogueModels "xmldoc(\"config.xml\")"
config *.**.nic.phy80211p.usePropagationDelay true
config *.**.nic.phy80211p.antenna "xmldoc(\"antenna.xml\", \"/root/Antenna[@id='monopole']\")"
config *.node[*].nic.phy80211p.antennaOffsetY "0 m"
config *.node[*].nic.phy80211p.antennaOffsetZ "1.895 m"
config *.node[*].applType "\"MyVeinsApp\""
config *.node[*].appl.headerLength "80 bit"
config *.node[*].appl.sendBeacons true
config *.node[*].appl.dataOnSch false
config *.node[*].appl.beaconInterval 1s
config *.node[*].veinsmobility.x 0
config *.node[*].veinsmobility.y 0
config *.node[*].veinsmobility.z 0
config *.node[*].veinsmobility.setHostSpeed false
config *.node[*0].veinsmobility.accidentCount 0
config *.node[*0].veinsmobility.accidentStart 5s
config *.node[*0].veinsmobility.accidentDuration 50s
config **.node[*].nic.mac1609_4.useAcks true
config **.node[*].nic.mac1609_4.pcapRecording true
config **.node[*].nic.mac1609_4.pcapFile "\"results/vehicle-network.pcap\""
config *.node[*].veinsmobility.collectStatistics true
config *.rsu[*].applLayer.collectStatistics true
config *.node[*].applLayer.packetReceived.vector-recording true
config *.node[*].applLayer.rssi.vector-recording true

par BasicProjectNetwork.obstacles typename "\"org.car2x.veins.modules.obstacle.ObstacleControl\""
par BasicProjectNetwork.obstacles obstacles "<obstacles/> at content:1"
par BasicProjectNetwork.obstacles gridCellSize 250
par BasicProjectNetwork.annotations typename "\"org.car2x.veins.modules.world.annotations.AnnotationManager\""
par BasicProjectNetwork.annotations draw true
par BasicProjectNetwork.annotations annotations "<annotations/> at content:1"
par BasicProjectNetwork.connectionManager typename "\"org.car2x.veins.base.connectionManager.ConnectionManager\""
par BasicProjectNetwork.connectionManager sendDirect true
par BasicProjectNetwork.connectionManager maxInterfDist 2600m
attr unit m
par BasicProjectNetwork.connectionManager drawMaxIntfDist false
par BasicProjectNetwork.world typename "\"org.car2x.veins.base.modules.BaseWorldUtility\""
par BasicProjectNetwork.world playgroundSizeX 8000m
attr unit m
par BasicProjectNetwork.world playgroundSizeY 10000m
attr unit m
par BasicProjectNetwork.world playgroundSizeZ 50m
attr unit m
par BasicProjectNetwork.world useTorus false
par BasicProjectNetwork.world use2D false
par BasicProjectNetwork.manager typename "\"org.car2x.veins.modules.mobility.traci.TraCIScenarioManagerLaunchd\""
par BasicProjectNetwork.manager connectAt 0s
attr unit s
par BasicProjectNetwork.manager firstStepAt -1s
attr unit s
par BasicProjectNetwork.manager updateInterval 1s
attr unit s
par BasicProjectNetwork.manager moduleType "\"org.car2x.veins.nodes.Car\""
par BasicProjectNetwork.manager moduleName "\"node\""
par BasicProjectNetwork.manager moduleDisplayString "\"*='i=veins/node/car;is=vs'\""
par BasicProjectNetwork.manager trafficLightModuleType "\"org.car2x.veins.nodes.TrafficLight\""
par BasicProjectNetwork.manager trafficLightModuleName "\"tls\""
par BasicProjectNetwork.manager trafficLightFilter "\"gneJ1\""
par BasicProjectNetwork.manager trafficLightModuleDisplayString "\"i=veins/node/trafficlight;is=vs\""
par BasicProjectNetwork.manager host "\"localhost\""
par BasicProjectNetwork.manager port 9999
par BasicProjectNetwork.manager seed -1
par BasicProjectNetwork.manager autoShutdown true
par BasicProjectNetwork.manager margin 25
par BasicProjectNetwork.manager roiRoads "\"\""
par BasicProjectNetwork.manager roiRects "\"\""
par BasicProjectNetwork.manager penetrationRate 1
par BasicProjectNetwork.manager ignoreGuiCommands false
par BasicProjectNetwork.manager order -1
par BasicProjectNetwork.manager ignoreUnknownSubscriptionResults false
par BasicProjectNetwork.manager launchConfig "<launch>...</launch> at C:/Users/tru89/Security-agent-in-VANETs-AI-Based-Intrusion-Detection/Configuration/Veins_simulation/TrafficLightProject2/simulations/\\launchd.xml:2"
scalar BasicProjectNetwork.manager roiArea 0
par BasicProjectNetwork.roadsCanvasVisualizer typename "\"org.car2x.veins.visualizer.roads.RoadsCanvasVisualizer\""
par BasicProjectNetwork.roadsCanvasVisualizer enabled true
par BasicProjectNetwork.roadsCanvasVisualizer lineZIndex -1
par BasicProjectNetwork.roadsCanvasVisualizer lineColor "\"firebrick4\""
par BasicProjectNetwork.roadsCanvasVisualizer lineWidth 1
par BasicProjectNetwork.roadsCanvasVisualizer lineWidthZoom false
par BasicProjectNetwork.node[0].appl typename "\"org.car2x.veins.modules.application.traci.MyVeinsApp\""
par BasicProjectNetwork.node[0].appl headerLength 80bit
attr unit bit
par BasicProjectNetwork.node[0].appl sendBeacons true
par BasicProjectNetwork.node[0].appl beaconLengthBits 256bit
attr unit bit
par BasicProjectNetwork.node[0].appl beaconUserPriority 7
par BasicProjectNetwork.node[0].appl beaconInterval 1s
attr unit s
par BasicProjectNetwork.node[0].appl dataLengthBits 1024bit
attr unit bit
par BasicProjectNetwork.node[0].appl dataOnSch false
par BasicProjectNetwork.node[0].appl dataUserPriority 7
par BasicProjectNetwork.node[0].appl avoidBeaconSynchronization true
par BasicProjectNetwork.node[0].appl sendWSA false
par BasicProjectNetwork.node[0].appl wsaLengthBits 250bit
attr unit bit
par BasicProjectNetwork.node[0].appl wsaInterval 1s
attr unit s
par BasicProjectNetwork.node[0].appl appName "\"My first Veins App!\""
scalar BasicProjectNetwork.node[0].appl generatedWSMs 0
scalar BasicProjectNetwork.node[0].appl receivedWSMs 0
scalar BasicProjectNetwork.node[0].appl generatedBSMs 3
scalar BasicProjectNetwork.node[0].appl receivedBSMs 6
scalar BasicProjectNetwork.node[0].appl generatedWSAs 0
scalar BasicProjectNetwork.node[0].appl receivedWSAs 0
par BasicProjectNetwork.node[0].nic.phy80211p typename "\"org.car2x.veins.modules.phy.PhyLayer80211p\""
par BasicProjectNetwork.node[0].nic.phy80211p recordStats false
par BasicProjectNetwork.node[0].nic.phy80211p usePropagationDelay true
par BasicProjectNetwork.node[0].nic.phy80211p noiseFloor -98dBm
attr unit dBm
par BasicProjectNetwork.node[0].nic.phy80211p useNoiseFloor true
par BasicProjectNetwork.node[0].nic.phy80211p antenna "<Antenna type=\"SampledAntenna1D\" id=\"monopole\">...</Antenna> at C:/Users/tru89/Security-agent-in-VANETs-AI-Based-Intrusion-Detection/Configuration/Veins_simulation/TrafficLightProject2/simulations/\\antenna.xml:35"
par BasicProjectNetwork.node[0].nic.phy80211p antennaOffsetX 0m
attr unit m
par BasicProjectNetwork.node[0].nic.phy80211p antennaOffsetY 0m
attr unit m
par BasicProjectNetwork.node[0].nic.phy80211p antennaOffsetZ 1.895m
attr unit m
par BasicProjectNetwork.node[0].nic.phy80211p antennaOffsetYaw 0rad
attr unit rad
par BasicProjectNetwork.node[0].nic.phy80211p analogueModels "<root>...</root> at C:/Users/tru89/Security-agent-in-VANETs-AI-Based-Intrusion-Detection/Configuration/Veins_simulation/TrafficLightProject2/simulations/\\config.xml:34"
par BasicProjectNetwork.node[0].nic.phy80211p decider "<root>...</root> at C:/Users/tru89/Security-agent-in-VANETs-AI-Based-Intrusion-Detection/Configuration/Veins_simulation/TrafficLightProject2/simulations/\\config.xml:34"
par BasicProjectNetwork.node[0].nic.phy80211p minPowerLevel -110dBm
attr unit dBm
par BasicProjectNetwork.node[0].nic.phy80211p timeRXToTX 0s
attr unit s
par BasicProjectNetwork.node[0].nic.phy80211p timeRXToSleep 0s
attr unit s
par BasicProjectNetwork.node[0].nic.phy80211p timeTXToRX 0s
attr unit s
par BasicProjectNetwork.node[0].nic.phy80211p timeTXToSleep 0s
attr unit s
par BasicProjectNetwork.node[0].nic.phy80211p timeSleepToRX 0s
attr unit s
par BasicProjectNetwork.node[0].nic.phy80211p timeSleepToTX 0s
attr unit s
par BasicProjectNetwork.node[0].nic.phy80211p initialRadioState 0
par BasicProjectNetwork.node[0].nic.phy80211p radioMinAtt 1
par BasicProjectNetwork.node[0].nic.phy80211p radioMaxAtt 0
par BasicProjectNetwork.node[0].nic.phy80211p nbRadioChannels 1
par BasicProjectNetwork.node[0].nic.phy80211p initialRadioChannel 0
par BasicProjectNetwork.node[0].nic.phy80211p ccaThreshold -65dBm
attr unit dBm
par BasicProjectNetwork.node[0].nic.phy80211p collectCollisionStatistics false
par BasicProjectNetwork.node[0].nic.phy80211p allowTxDuringRx false
scalar BasicProjectNetwork.node[0].nic.phy80211p busyTime 0.00018923167328975
par BasicProjectNetwork.node[0].nic.mac1609_4 typename "\"org.car2x.veins.modules.mac.ieee80211p.Mac1609_4\""
par BasicProjectNetwork.node[0].nic.mac1609_4 notAffectedByHostState false
par BasicProjectNetwork.node[0].nic.mac1609_4 headerLength 0bit
attr unit bit
par BasicProjectNetwork.node[0].nic.mac1609_4 address "\"auto\""
par BasicProjectNetwork.node[0].nic.mac1609_4 useServiceChannel false
par BasicProjectNetwork.node[0].nic.mac1609_4 serviceChannel 1
par BasicProjectNetwork.node[0].nic.mac1609_4 bitrate 6000000bps
attr unit bps
par BasicProjectNetwork.node[0].nic.mac1609_4 syncOffset 0.0003s
attr unit s
par BasicProjectNetwork.node[0].nic.mac1609_4 txPower 20mW
attr unit mW
par BasicProjectNetwork.node[0].nic.mac1609_4 queueSize 0
par BasicProjectNetwork.node[0].nic.mac1609_4 dot11RTSThreshold 12000bit
attr unit bit
par BasicProjectNetwork.node[0].nic.mac1609_4 dot11ShortRetryLimit 7
par BasicProjectNetwork.node[0].nic.mac1609_4 dot11LongRetryLimit 4
par BasicProjectNetwork.node[0].nic.mac1609_4 ackLength 112bit
attr unit bit
par BasicProjectNetwork.node[0].nic.mac1609_4 useAcks true
par BasicProjectNetwork.node[0].nic.mac1609_4 frameErrorRate 0
par BasicProjectNetwork.node[0].nic.mac1609_4 ackErrorRate 0
scalar BasicProjectNetwork.node[0].nic.mac1609_4 ReceivedUnicastPackets 0
scalar BasicProjectNetwork.node[0].nic.mac1609_4 ReceivedBroadcasts 6
scalar BasicProjectNetwork.node[0].nic.mac1609_4 SentPackets 3
scalar BasicProjectNetwork.node[0].nic.mac1609_4 SentAcknowledgements 0
scalar BasicProjectNetwork.node[0].nic.mac1609_4 RetriesExceeded 0
scalar BasicProjectNetwork.node[0].nic.mac1609_4 SNIRLostPackets 0
scalar BasicProjectNetwork.node[0].nic.mac1609_4 RXTXLostPackets 0
scalar BasicProjectNetwork.node[0].nic.mac1609_4 TotalLostPackets 0
scalar BasicProjectNetwork.node[0].nic.mac1609_4 DroppedPacketsInMac 0
scalar BasicProjectNetwork.node[0].nic.mac1609_4 TooLittleTime 0
scalar BasicProjectNetwork.node[0].nic.mac1609_4 TimesIntoBackoff 3
scalar BasicProjectNetwork.node[0].nic.mac1609_4 SlotsBackoff 0
scalar BasicProjectNetwork.node[0].nic.mac1609_4 NumInternalContention 0
scalar BasicProjectNetwork.node[0].nic.mac1609_4 totalBusyTime 0.000939
scalar BasicProjectNetwork.node[0].nic.mac1609_4 retriesExceeded:count 0
attr recordingmode count
attr source org_car2x_veins_modules_mac_sigRetriesExceeded
scalar BasicProjectNetwork.node[0].nic.mac1609_4 sentAcks:count 0
attr recordingmode count
attr source org_car2x_veins_modules_mac_sigSentAck
scalar BasicProjectNetwork.node[0].nic.mac1609_4 sentPackets:count 3
attr recordingmode count
attr source org_car2x_veins_modules_mac_sigSentPacket
scalar BasicProjectNetwork.node[0].nic.mac1609_4 collisions:count 0
attr recordingmode count
attr source org_car2x_veins_modules_mac_sigCollision
scalar BasicProjectNetwork.node[0].nic.mac1609_4 channelBusy:timeavg 0.00028475727759467
attr recordingmode timeavg
attr source org_car2x_veins_modules_mac_sigChannelBusy
par BasicProjectNetwork.node[0].nic typename "\"org.car2x.veins.modules.nic.Nic80211p\""
par BasicProjectNetwork.node[0].nic connectionManagerName "\"connectionManager\""
par BasicProjectNetwork.node[0].veinsmobility typename "\"org.car2x.veins.modules.mobility.traci.TraCIMobility\""
par BasicProjectNetwork.node[0].veinsmobility notAffectedByHostState true
par BasicProjectNetwork.node[0].veinsmobility x 0
par BasicProjectNetwork.node[0].veinsmobility y 0
par BasicProjectNetwork.node[0].veinsmobility z 0
par BasicProjectNetwork.node[0].veinsmobility xOrientation 1
par BasicProjectNetwork.node[0].veinsmobility yOrientation 0
par BasicProjectNetwork.node[0].veinsmobility zOrientation 0
par BasicProjectNetwork.node[0].veinsmobility hostPositionOffset 0m
attr unit m
par BasicProjectNetwork.node[0].veinsmobility setHostSpeed false
par BasicProjectNetwork.node[0].veinsmobility accidentCount 0
par BasicProjectNetwork.node[0].veinsmobility accidentStart 5s
attr unit s
par BasicProjectNetwork.node[0].veinsmobility accidentDuration 50s
attr unit s
par BasicProjectNetwork.node[0].veinsmobility accidentInterval "uniform(30s, 60s)"
attr unit s
scalar BasicProjectNetwork.node[0].veinsmobility startTime 1
scalar BasicProjectNetwork.node[0].veinsmobility totalTime 3
scalar BasicProjectNetwork.node[0].veinsmobility stopTime 4.297545221431
scalar BasicProjectNetwork.node[0].veinsmobility minSpeed 2.4524649926694
scalar BasicProjectNetwork.node[0].veinsmobility maxSpeed 5.278352229204
scalar BasicProjectNetwork.node[0].veinsmobility totalDistance 11.643092476446
scalar BasicProjectNetwork.node[0].veinsmobility totalCO2Emission 5.7993626166741
par BasicProjectNetwork.node[0] typename "\"org.car2x.veins.nodes.Car\""
par BasicProjectNetwork.node[0] applType "\"MyVeinsApp\""
par BasicProjectNetwork.node[0] nicType "\"Nic80211p\""
par BasicProjectNetwork.node[0] veinsmobilityType "\"org.car2x.veins.modules.mobility.traci.TraCIMobility\""
par BasicProjectNetwork.node[1].appl typename "\"org.car2x.veins.modules.application.traci.MyVeinsApp\""
par BasicProjectNetwork.node[1].appl headerLength 80bit
attr unit bit
par BasicProjectNetwork.node[1].appl sendBeacons true
par BasicProjectNetwork.node[1].appl beaconLengthBits 256bit
attr unit bit
par BasicProjectNetwork.node[1].appl beaconUserPriority 7
par BasicProjectNetwork.node[1].appl beaconInterval 1s
attr unit s
par BasicProjectNetwork.node[1].appl dataLengthBits 1024bit
attr unit bit
par BasicProjectNetwork.node[1].appl dataOnSch false
par BasicProjectNetwork.node[1].appl dataUserPriority 7
par BasicProjectNetwork.node[1].appl avoidBeaconSynchronization true
par BasicProjectNetwork.node[1].appl sendWSA false
par BasicProjectNetwork.node[1].appl wsaLengthBits 250bit
attr unit bit
par BasicProjectNetwork.node[1].appl wsaInterval 1s
attr unit s
par BasicProjectNetwork.node[1].appl appName "\"My first Veins App!\""
scalar BasicProjectNetwork.node[1].appl generatedWSMs 0
scalar BasicProjectNetwork.node[1].appl receivedWSMs 0
scalar BasicProjectNetwork.node[1].appl generatedBSMs 4
scalar BasicProjectNetwork.node[1].appl receivedBSMs 6
scalar BasicProjectNetwork.node[1].appl generatedWSAs 0
scalar BasicProjectNetwork.node[1].appl receivedWSAs 0
par BasicProjectNetwork.node[1].nic.phy80211p typename "\"org.car2x.veins.modules.phy.PhyLayer80211p\""
par BasicProjectNetwork.node[1].nic.phy80211p recordStats false
par BasicProjectNetwork.node[1].nic.phy80211p usePropagationDelay true
par BasicProjectNetwork.node[1].nic.phy80211p noiseFloor -98dBm
attr unit dBm
par BasicProjectNetwork.node[1].nic.phy80211p useNoiseFloor true
par BasicProjectNetwork.node[1].nic.phy80211p antenna "<Antenna type=\"SampledAntenna1D\" id=\"monopole\">...</Antenna> at C:/Users/tru89/Security-agent-in-VANETs-AI-Based-Intrusion-Detection/Configuration/Veins_simulation/TrafficLightProject2/simulations/\\antenna.xml:35"
par BasicProjectNetwork.node[1].nic.phy80211p antennaOffsetX 0m
attr unit m
par BasicProjectNetwork.node[1].nic.phy80211p antennaOffsetY 0m
attr unit m
par BasicProjectNetwork.node[1].nic.phy80211p antennaOffsetZ 1.895m
attr unit m
par BasicProjectNetwork.node[1].nic.phy80211p antennaOffsetYaw 0rad
attr unit rad
par BasicProjectNetwork.node[1].nic.phy80211p analogueModels "<root>...</root> at C:/Users/tru89/Security-agent-in-VANETs-AI-Based-Intrusion-Detection/Configuration/Veins_simulation/TrafficLightProject2/simulations/\\config.xml:34"
par BasicProjectNetwork.node[1].nic.phy80211p decider "<root>...</root> at C:/Users/tru89/Security-agent-in-VANETs-AI-Based-Intrusion-Detection/Configuration/Veins_simulation/TrafficLightProject2/simulations/\\config.xml:34"
par BasicProjectNetwork.node[1].nic.phy80211p minPowerLevel -110dBm
attr unit dBm
par BasicProjectNetwork.node[1].nic.phy80211p timeRXToTX 0s
attr unit s
par BasicProjectNetwork.node[1].nic.phy80211p timeRXToSleep 0s
attr unit s
par BasicProjectNetwork.node[1].nic.phy80211p timeTXToRX 0s
attr unit s
par BasicProjectNetwork.node[1].nic.phy80211p timeTXToSleep 0s
attr unit s
par BasicProjectNetwork.node[1].nic.phy80211p timeSleepToRX 0s
attr unit s
par BasicProjectNetwork.node[1].nic.phy80211p timeSleepToTX 0s
attr unit s
par BasicProjectNetwork.node[1].nic.phy80211p initialRadioState 0
par BasicProjectNetwork.node[1].nic.phy80211p radioMinAtt 1
par BasicProjectNetwork.node[1].nic.phy80211p radioMaxAtt 0
par BasicProjectNetwork.node[1].nic.phy80211p nbRadioChannels 1
par BasicProjectNetwork.node[1].nic.phy80211p initialRadioChannel 0
par BasicProjectNetwork.node[1].nic.phy80211p ccaThreshold -65dBm
attr unit dBm
par BasicProjectNetwork.node[1].nic.phy80211p collectCollisionStatistics false
par BasicProjectNetwork.node[1].nic.phy80211p allowTxDuringRx false
scalar BasicProjectNetwork.node[1].nic.phy80211p busyTime 0.00018923167328975
par BasicProjectNetwork.node[1].nic.mac1609_4 typename "\"org.car2x.veins.modules.mac.ieee80211p.Mac1609_4\""
par BasicProjectNetwork.node[1].nic.mac1609_4 notAffectedByHostState false
par BasicProjectNetwork.node[1].nic.mac1609_4 headerLength 0bit
attr unit bit
par BasicProjectNetwork.node[1].nic.mac1609_4 address "\"auto\""
par BasicProjectNetwork.node[1].nic.mac1609_4 useServiceChannel false
par BasicProjectNetwork.node[1].nic.mac1609_4 serviceChannel 1
par BasicProjectNetwork.node[1].nic.mac1609_4 bitrate 6000000bps
attr unit bps
par BasicProjectNetwork.node[1].nic.mac1609_4 syncOffset 0.0003s
attr unit s
par BasicProjectNetwork.node[1].nic.mac1609_4 txPower 20mW
attr unit mW
par BasicProjectNetwork.node[1].nic.mac1609_4 queueSize 0
par BasicProjectNetwork.node[1].nic.mac1609_4 dot11RTSThreshold 12000bit
attr unit bit
par BasicProjectNetwork.node[1].nic.mac1609_4 dot11ShortRetryLimit 7
par BasicProjectNetwork.node[1].nic.mac1609_4 dot11LongRetryLimit 4
par BasicProjectNetwork.node[1].nic.mac1609_4 ackLength 112bit
attr unit bit
par BasicProjectNetwork.node[1].nic.mac1609_4 useAcks true
par BasicProjectNetwork.node[1].nic.mac1609_4 frameErrorRate 0
par BasicProjectNetwork.node[1].nic.mac1609_4 ackErrorRate 0
scalar BasicProjectNetwork.node[1].nic.mac1609_4 ReceivedUnicastPackets 0
scalar BasicProjectNetwork.node[1].nic.mac1609_4 ReceivedBroadcasts 6
scalar BasicProjectNetwork.node[1].nic.mac1609_4 SentPackets 4
scalar BasicProjectNetwork.node[1].nic.mac1609_4 SentAcknowledgements 0
scalar BasicProjectNetwork.node[1].nic.mac1609_4 RetriesExceeded 0
scalar BasicProjectNetwork.node[1].nic.mac1609_4 SNIRLostPackets 0
scalar BasicProjectNetwork.node[1].nic.mac1609_4 RXTXLostPackets 0
scalar BasicProjectNetwork.node[1].nic.mac1609_4 TotalLostPackets 0
scalar BasicProjectNetwork.node[1].nic.mac1609_4 DroppedPacketsInMac 0
scalar BasicProjectNetwork.node[1].nic.mac1609_4 TooLittleTime 0
scalar BasicProjectNetwork.node[1].nic.mac1609_4 TimesIntoBackoff 3
scalar BasicProjectNetwork.node[1].nic.mac1609_4 SlotsBackoff 6
scalar BasicProjectNetwork.node[1].nic.mac1609_4 NumInternalContention 0
scalar BasicProjectNetwork.node[1].nic.mac1609_4 totalBusyTime 0.000939
scalar BasicProjectNetwork.node[1].nic.mac1609_4 retriesExceeded:count 0
attr recordingmode count
attr source org_car2x_veins_modules_mac_sigRetriesExceeded
scalar BasicProjectNetwork.node[1].nic.mac1609_4 sentAcks:count 0
attr recordingmode count
attr source org_car2x_veins_modules_mac_sigSentAck
scalar BasicProjectNetwork.node[1].nic.mac1609_4 sentPackets:count 4
attr recordingmode count
attr source org_car2x_veins_modules_mac_sigSentPacket
scalar BasicProjectNetwork.node[1].nic.mac1609_4 collisions:count 0
attr recordingmode count
attr source org_car2x_veins_modules_mac_sigCollision
scalar BasicProjectNetwork.node[1].nic.mac1609_4 channelBusy:timeavg 0.00028538479560005
attr recordingmode timeavg
attr source org_car2x_veins_modules_mac_sigChannelBusy
par BasicProjectNetwork.node[1].nic typename "\"org.car2x.veins.modules.nic.Nic80211p\""
par BasicProjectNetwork.node[1].nic connectionManagerName "\"connectionManager\""
par BasicProjectNetwork.node[1].veinsmobility typename "\"org.car2x.veins.modules.mobility.traci.TraCIMobility\""
par BasicProjectNetwork.node[1].veinsmobility notAffectedByHostState true
par BasicProjectNetwork.node[1].veinsmobility x 0
par BasicProjectNetwork.node[1].veinsmobility y 0
par BasicProjectNetwork.node[1].veinsmobility z 0
par BasicProjectNetwork.node[1].veinsmobility xOrientation 1
par BasicProjectNetwork.node[1].veinsmobility yOrientation 0
par BasicProjectNetwork.node[1].veinsmobility zOrientation 0
par BasicProjectNetwork.node[1].veinsmobility hostPositionOffset 0m
attr unit m
par BasicProjectNetwork.node[1].veinsmobility setHostSpeed false
par BasicProjectNetwork.node[1].veinsmobility accidentCount 0
par BasicProjectNetwork.node[1].veinsmobility accidentStart 48.7069s
attr unit s
par BasicProjectNetwork.node[1].veinsmobility accidentDuration "uniform(30s, 60s)"
attr unit s
par BasicProjectNetwork.node[1].veinsmobility accidentInterval "uniform(30s, 60s)"
attr unit s
scalar BasicProjectNetwork.node[1].veinsmobility startTime 1
scalar BasicProjectNetwork.node[1].veinsmobility totalTime 3
scalar BasicProjectNetwork.node[1].veinsmobility stopTime 4.297545221431
scalar BasicProjectNetwork.node[1].veinsmobility minSpeed 2.5498698164476
scalar BasicProjectNetwork.node[1].veinsmobility maxSpeed 6.4812462076312
scalar BasicProjectNetwork.node[1].veinsmobility totalDistance 13.923761486303
scalar BasicProjectNetwork.node[1].veinsmobility totalCO2Emission 8.0490891221596
par BasicProjectNetwork.node[1] typename "\"org.car2x.veins.nodes.Car\""
par BasicProjectNetwork.node[1] applType "\"MyVeinsApp\""
par BasicProjectNetwork.node[1] nicType "\"Nic80211p\""
par BasicProjectNetwork.node[1] veinsmobilityType "\"org.car2x.veins.modules.mobility.traci.TraCIMobility\""
par BasicProjectNetwork.node[2].appl typename "\"org.car2x.veins.modules.application.traci.MyVeinsApp\""
par BasicProjectNetwork.node[2].appl headerLength 80bit
attr unit bit
par BasicProjectNetwork.node[2].appl sendBeacons true
par BasicProjectNetwork.node[2].appl beaconLengthBits 256bit
attr unit bit
par BasicProjectNetwork.node[2].appl beaconUserPriority 7
par BasicProjectNetwork.node[2].appl beaconInterval 1s
attr unit s
par BasicProjectNetwork.node[2].appl dataLengthBits 1024bit
attr unit bit
par BasicProjectNetwork.node[2].appl dataOnSch false
par BasicProjectNetwork.node[2].appl dataUserPriority 7
par BasicProjectNetwork.node[2].appl avoidBeaconSynchronization true
par BasicProjectNetwork.node[2].appl sendWSA false
par BasicProjectNetwork.node[2].appl wsaLengthBits 250bit
attr unit bit
par BasicProjectNetwork.node[2].appl wsaInterval 1s
attr unit s
par BasicProjectNetwork.node[2].appl appName "\"My first Veins App!\""
scalar BasicProjectNetwork.node[2].appl generatedWSMs 0
scalar BasicProjectNetwork.node[2].appl receivedWSMs 0
scalar BasicProjectNetwork.node[2].appl generatedBSMs 3
scalar BasicProjectNetwork.node[2].appl receivedBSMs 6
scalar BasicProjectNetwork.node[2].appl generatedWSAs 0
scalar BasicProjectNetwork.node[2].appl receivedWSAs 0
par BasicProjectNetwork.node[2].nic.phy80211p typename "\"org.car2x.veins.modules.phy.PhyLayer80211p\""
par BasicProjectNetwork.node[2].nic.phy80211p recordStats false
par BasicProjectNetwork.node[2].nic.phy80211p usePropagationDelay true
par BasicProjectNetwork.node[2].nic.phy80211p noiseFloor -98dBm
attr unit dBm
par BasicProjectNetwork.node[2].nic.phy80211p useNoiseFloor true
par BasicProjectNetwork.node[2].nic.phy80211p antenna "<Antenna type=\"SampledAntenna1D\" id=\"monopole\">...</Antenna> at C:/Users/tru89/Security-agent-in-VANETs-AI-Based-Intrusion-Detection/Configuration/Veins_simulation/TrafficLightProject2/simulations/\\antenna.xml:35"
par BasicProjectNetwork.node[2].nic.phy80211p antennaOffsetX 0m
attr unit m
par BasicProjectNetwork.node[2].nic.phy80211p antennaOffsetY 0m
attr unit m
par BasicProjectNetwork.node[2].nic.phy80211p antennaOffsetZ 1.895m
attr unit m
par BasicProjectNetwork.node[2].nic.phy80211p antennaOffsetYaw 0rad
attr unit rad
par BasicProjectNetwork.node[2].nic.phy80211p analogueModels "<root>...</root> at C:/Users/tru89/Security-agent-in-VANETs-AI-Based-Intrusion-Detection/Configuration/Veins_simulation/TrafficLightProject2/simulations/\\config.xml:34"
par BasicProjectNetwork.node[2].nic.phy80211p decider "<root>...</root> at C:/Users/tru89/Security-agent-in-VANETs-AI-Based-Intrusion-Detection/Configuration/Veins_simulation/TrafficLightProject2/simulations/\\config.xml:34"
par BasicProjectNetwork.node[2].nic.phy80211p minPowerLevel -110dBm
attr unit dBm
par BasicProjectNetwork.node[2].nic.phy80211p timeRXToTX 0s
attr unit s
par BasicProjectNetwork.node[2].nic.phy80211p timeRXToSleep 0s
attr unit s
par BasicProjectNetwork.node[2].nic.phy80211p timeTXToRX 0s
attr unit s
par BasicProjectNetwork.node[2].nic.phy80211p timeTXToSleep 0s
attr unit s
par BasicProjectNetwork.node[2].nic.phy80211p timeSleepToRX 0s
attr unit s
par BasicProjectNetwork.node[2].nic.phy80211p timeSleepToTX 0s
attr unit s
par BasicProjectNetwork.node[2].nic.phy80211p initialRadioState 0
par BasicProjectNetwork.node[2].nic.phy80211p radioMinAtt 1
par BasicProjectNetwork.node[2].nic.phy80211p radioMaxAtt 0
par BasicProjectNetwork.node[2].nic.phy80211p nbRadioChannels 1
par BasicProjectNetwork.node[2].nic.phy80211p initialRadioChannel 0
par BasicProjectNetwork.node[2].nic.phy80211p ccaThreshold -65dBm
attr unit dBm
par BasicProjectNetwork.node[2].nic.phy80211p collectCollisionStatistics false
par BasicProjectNetwork.node[2].nic.phy80211p allowTxDuringRx false
scalar BasicProjectNetwork.node[2].nic.phy80211p busyTime 0.00022077028550471
par BasicProjectNetwork.node[2].nic.mac1609_4 typename "\"org.car2x.veins.modules.mac.ieee80211p.Mac1609_4\""
par BasicProjectNetwork.node[2].nic.mac1609_4 notAffectedByHostState false
par BasicProjectNetwork.node[2].nic.mac1609_4 headerLength 0bit
attr unit bit
par BasicProjectNetwork.node[2].nic.mac1609_4 address "\"auto\""
par BasicProjectNetwork.node[2].nic.mac1609_4 useServiceChannel false
par BasicProjectNetwork.node[2].nic.mac1609_4 serviceChannel 1
par BasicProjectNetwork.node[2].nic.mac1609_4 bitrate 6000000bps
attr unit bps
par BasicProjectNetwork.node[2].nic.mac1609_4 syncOffset 0.0003s
attr unit s
par BasicProjectNetwork.node[2].nic.mac1609_4 txPower 20mW
attr unit mW
par BasicProjectNetwork.node[2].nic.mac1609_4 queueSize 0
par BasicProjectNetwork.node[2].nic.mac1609_4 dot11RTSThreshold 12000bit
attr unit bit
par BasicProjectNetwork.node[2].nic.mac1609_4 dot11ShortRetryLimit 7
par BasicProjectNetwork.node[2].nic.mac1609_4 dot11LongRetryLimit 4
par BasicProjectNetwork.node[2].nic.mac1609_4 ackLength 112bit
attr unit bit
par BasicProjectNetwork.node[2].nic.mac1609_4 useAcks true
par BasicProjectNetwork.node[2].nic.mac1609_4 frameErrorRate 0
par BasicProjectNetwork.node[2].nic.mac1609_4 ackErrorRate 0
scalar BasicProjectNetwork.node[2].nic.mac1609_4 ReceivedUnicastPackets 0
scalar BasicProjectNetwork.node[2].nic.mac1609_4 ReceivedBroadcasts 6
scalar BasicProjectNetwork.node[2].nic.mac1609_4 SentPackets 3
scalar BasicProjectNetwork.node[2].nic.mac1609_4 SentAcknowledgements 0
scalar BasicProjectNetwork.node[2].nic.mac1609_4 RetriesExceeded 0
scalar BasicProjectNetwork.node[2].nic.mac1609_4 SNIRLostPackets 0
scalar BasicProjectNetwork.node[2].nic.mac1609_4 RXTXLostPackets 0
scalar BasicProjectNetwork.node[2].nic.mac1609_4 TotalLostPackets 0
scalar BasicProjectNetwork.node[2].nic.mac1609_4 DroppedPacketsInMac 0
scalar BasicProjectNetwork.node[2].nic.mac1609_4 TooLittleTime 0
scalar BasicProjectNetwork.node[2].nic.mac1609_4 TimesIntoBackoff 3
scalar BasicProjectNetwork.node[2].nic.mac1609_4 SlotsBackoff 4
scalar BasicProjectNetwork.node[2].nic.mac1609_4 NumInternalContention 0
scalar BasicProjectNetwork.node[2].nic.mac1609_4 totalBusyTime 0.000939
scalar BasicProjectNetwork.node[2].nic.mac1609_4 retriesExceeded:count 0
attr recordingmode count
attr source org_car2x_veins_modules_mac_sigRetriesExceeded
scalar BasicProjectNetwork.node[2].nic.mac1609_4 sentAcks:count 0
attr recordingmode count
attr source org_car2x_veins_modules_mac_sigSentAck
scalar BasicProjectNetwork.node[2].nic.mac1609_4 sentPackets:count 3
attr recordingmode count
attr source org_car2x_veins_modules_mac_sigSentPacket
scalar BasicProjectNetwork.node[2].nic.mac1609_4 collisions:count 0
attr recordingmode count
attr source org_car2x_veins_modules_mac_sigCollision
scalar BasicProjectNetwork.node[2].nic.mac1609_4 channelBusy:timeavg 0.00028482418069536
attr recordingmode timeavg
attr source org_car2x_veins_modules_mac_sigChannelBusy
par BasicProjectNetwork.node[2].nic typename "\"org.car2x.veins.modules.nic.Nic80211p\""
par BasicProjectNetwork.node[2].nic connectionManagerName "\"connectionManager\""
par BasicProjectNetwork.node[2].veinsmobility typename "\"org.car2x.veins.modules.mobility.traci.TraCIMobility\""
par BasicProjectNetwork.node[2].veinsmobility notAffectedByHostState true
par BasicProjectNetwork.node[2].veinsmobility x 0
par BasicProjectNetwork.node[2].veinsmobility y 0
par BasicProjectNetwork.node[2].veinsmobility z 0
par BasicProjectNetwork.node[2].veinsmobility xOrientation 1
par BasicProjectNetwork.node[2].veinsmobility yOrientation 0
par BasicProjectNetwork.node[2].veinsmobility zOrientation 0
par BasicProjectNetwork.node[2].veinsmobility hostPositionOffset 0m
attr unit m
par BasicProjectNetwork.node[2].veinsmobility setHostSpeed false
par BasicProjectNetwork.node[2].veinsmobility accidentCount 0
par BasicProjectNetwork.node[2].veinsmobility accidentStart 56.7532s
attr unit s
par BasicProjectNetwork.node[2].veinsmobility accidentDuration "uniform(30s, 60s)"
attr unit s
par BasicProjectNetwork.node[2].veinsmobility accidentInterval "uniform(30s, 60s)"
attr unit s
scalar BasicProjectNetwork.node[2].veinsmobility startTime 1
scalar BasicProjectNetwork.node[2].veinsmobility totalTime 3
scalar BasicProjectNetwork.node[2].veinsmobility stopTime 4.297545221431
scalar BasicProjectNetwork.node[2].veinsmobility minSpeed 1.5147052048706
scalar BasicProjectNetwork.node[2].veinsmobility maxSpeed 6.0161660460755
scalar BasicProjectNetwork.node[2].veinsmobility totalDistance 11.0832306672
scalar BasicProjectNetwork.node[2].veinsmobility totalCO2Emission 8.0225774131982
par BasicProjectNetwork.node[2] typename "\"org.car2x.veins.nodes.Car\""
par BasicProjectNetwork.node[2] applType "\"MyVeinsApp\""
par BasicProjectNetwork.node[2] nicType "\"Nic80211p\""
par BasicProjectNetwork.node[2] veinsmobilityType "\"org.car2x.veins.modules.mobility.traci.TraCIMobility\""
par BasicProjectNetwork.node[3].appl typename "\"org.car2x.veins.modules.application.traci.MyVeinsApp\""
par BasicProjectNetwork.node[3].appl headerLength 80bit
attr unit bit
par BasicProjectNetwork.node[3].appl sendBeacons true
par BasicProjectNetwork.node[3].appl beaconLengthBits 256bit
attr unit bit
par BasicProjectNetwork.node[3].appl beaconUserPriority 7
par BasicProjectNetwork.node[3].appl beaconInterval 1s
attr unit s
par BasicProjectNetwork.node[3].appl dataLengthBits 1024bit
attr unit bit
par BasicProjectNetwork.node[3].appl dataOnSch false
par BasicProjectNetwork.node[3].appl dataUserPriority 7
par BasicProjectNetwork.node[3].appl avoidBeaconSynchronization true
par BasicProjectNetwork.node[3].appl sendWSA false
par BasicProjectNetwork.node[3].appl wsaLengthBits 250bit
attr unit bit
par BasicProjectNetwork.node[3].appl wsaInterval 1s
attr unit s
par BasicProjectNetwork.node[3].appl appName "\"My first Veins App!\""
scalar BasicProjectNetwork.node[3].appl generatedWSMs 0
scalar BasicProjectNetwork.node[3].appl receivedWSMs 0
scalar BasicProjectNetwork.node[3].appl generatedBSMs 0
scalar BasicProjectNetwork.node[3].appl receivedBSMs 0
scalar BasicProjectNetwork.node[3].appl generatedWSAs 0
scalar BasicProjectNetwork.node[3].appl receivedWSAs 0
par BasicProjectNetwork.node[3].nic.phy80211p typename "\"org.car2x.veins.modules.phy.PhyLayer80211p\""
par BasicProjectNetwork.node[3].nic.phy80211p recordStats false
par BasicProjectNetwork.node[3].nic.phy80211p usePropagationDelay true
par BasicProjectNetwork.node[3].nic.phy80211p noiseFloor -98dBm
attr unit dBm
par BasicProjectNetwork.node[3].nic.phy80211p useNoiseFloor true
par BasicProjectNetwork.node[3].nic.phy80211p antenna "<Antenna type=\"SampledAntenna1D\" id=\"monopole\">...</Antenna> at C:/Users/tru89/Security-agent-in-VANETs-AI-Based-Intrusion-Detection/Configuration/Veins_simulation/TrafficLightProject2/simulations/\\antenna.xml:35"
par BasicProjectNetwork.node[3].nic.phy80211p antennaOffsetX 0m
attr unit m
par BasicProjectNetwork.node[3].nic.phy80211p antennaOffsetY 0m
attr unit m
par BasicProjectNetwork.node[3].nic.phy80211p antennaOffsetZ 1.895m
attr unit m
par BasicProjectNetwork.node[3].nic.phy80211p antennaOffsetYaw 0rad
attr unit rad
par BasicProjectNetwork.node[3].nic.phy80211p analogueModels "<root>...</root> at C:/Users/tru89/Security-agent-in-VANETs-AI-Based-Intrusion-Detection/Configuration/Veins_simulation/TrafficLightProject2/simulations/\\config.xml:34"
par BasicProjectNetwork.node[3].nic.phy80211p decider "<root>...</root> at C:/Users/tru89/Security-agent-in-VANETs-AI-Based-Intrusion-Detection/Configuration/Veins_simulation/TrafficLightProject2/simulations/\\config.xml:34"
par BasicProjectNetwork.node[3].nic.phy80211p minPowerLevel -110dBm
attr unit dBm
par BasicProjectNetwork.node[3].nic.phy80211p timeRXToTX 0s
attr unit s
par BasicProjectNetwork.node[3].nic.phy80211p timeRXToSleep 0s
attr unit s
par BasicProjectNetwork.node[3].nic.phy80211p timeTXToRX 0s
attr unit s
par BasicProjectNetwork.node[3].nic.phy80211p timeTXToSleep 0s
attr unit s
par BasicProjectNetwork.node[3].nic.phy80211p timeSleepToRX 0s
attr unit s
par BasicProjectNetwork.node[3].nic.phy80211p timeSleepToTX 0s
attr unit s
par BasicProjectNetwork.node[3].nic.phy80211p initialRadioState 0
par BasicProjectNetwork.node[3].nic.phy80211p radioMinAtt 1
par BasicProjectNetwork.node[3].nic.phy80211p radioMaxAtt 0
par BasicProjectNetwork.node[3].nic.phy80211p nbRadioChannels 1
par BasicProjectNetwork.node[3].nic.phy80211p initialRadioChannel 0
par BasicProjectNetwork.node[3].nic.phy80211p ccaThreshold -65dBm
attr unit dBm
par BasicProjectNetwork.node[3].nic.phy80211p collectCollisionStatistics false
par BasicProjectNetwork.node[3].nic.phy80211p allowTxDuringRx false
scalar BasicProjectNetwork.node[3].nic.phy80211p busyTime 0
par BasicProjectNetwork.node[3].nic.mac1609_4 typename "\"org.car2x.veins.modules.mac.ieee80211p.Mac1609_4\""
par BasicProjectNetwork.node[3].nic.mac1609_4 notAffectedByHostState false
par BasicProjectNetwork.node[3].nic.mac1609_4 headerLength 0bit
attr unit bit
par BasicProjectNetwork.node[3].nic.mac1609_4 address "\"auto\""
par BasicProjectNetwork.node[3].nic.mac1609_4 useServiceChannel false
par BasicProjectNetwork.node[3].nic.mac1609_4 serviceChannel 1
par BasicProjectNetwork.node[3].nic.mac1609_4 bitrate 6000000bps
attr unit bps
par BasicProjectNetwork.node[3].nic.mac1609_4 syncOffset 0.0003s
attr unit s
par BasicProjectNetwork.node[3].nic.mac1609_4 txPower 20mW
attr unit mW
par BasicProjectNetwork.node[3].nic.mac1609_4 queueSize 0
par BasicProjectNetwork.node[3].nic.mac1609_4 dot11RTSThreshold 12000bit
attr unit bit
par BasicProjectNetwork.node[3].nic.mac1609_4 dot11ShortRetryLimit 7
par BasicProjectNetwork.node[3].nic.mac1609_4 dot11LongRetryLimit 4
par BasicProjectNetwork.node[3].nic.mac1609_4 ackLength 112bit
attr unit bit
par BasicProjectNetwork.node[3].nic.mac1609_4 useAcks true
par BasicProjectNetwork.node[3].nic.mac1609_4 frameErrorRate 0
par BasicProjectNetwork.node[3].nic.mac1609_4 ackErrorRate 0
scalar BasicProjectNetwork.node[3].nic.mac1609_4 ReceivedUnicastPackets 0
scalar BasicProjectNetwork.node[3].nic.mac1609_4 ReceivedBroadcasts 0
scalar BasicProjectNetwork.node[3].nic.mac1609_4 SentPackets 0
scalar BasicProjectNetwork.node[3].nic.mac1609_4 SentAcknowledgements 0
scalar BasicProjectNetwork.node[3].nic.mac1609_4 RetriesExceeded 0
scalar BasicProjectNetwork.node[3].nic.mac1609_4 SNIRLostPackets 0
scalar BasicProjectNetwork.node[3].nic.mac1609_4 RXTXLostPackets 0
scalar BasicProjectNetwork.node[3].nic.mac1609_4 TotalLostPackets 0
scalar BasicProjectNetwork.node[3].nic.mac1609_4 DroppedPacketsInMac 0
scalar BasicProjectNetwork.node[3].nic.mac1609_4 TooLittleTime 0
scalar BasicProjectNetwork.node[3].nic.mac1609_4 TimesIntoBackoff 0
scalar BasicProjectNetwork.node[3].nic.mac1609_4 SlotsBackoff 0
scalar BasicProjectNetwork.node[3].nic.mac1609_4 NumInternalContention 0
scalar BasicProjectNetwork.node[3].nic.mac1609_4 totalBusyTime 0
scalar BasicProjectNetwork.node[3].nic.mac1609_4 retriesExceeded:count 0
attr recordingmode count
attr source org_car2x_veins_modules_mac_sigRetriesExceeded
scalar BasicProjectNetwork.node[3].nic.mac1609_4 sentAcks:count 0
attr recordingmode count
attr source org_car2x_veins_modules_mac_sigSentAck
scalar BasicProjectNetwork.node[3].nic.mac1609_4 sentPackets:count 0
attr recordingmode count
attr source org_car2x_veins_modules_mac_sigSentPacket
scalar BasicProjectNetwork.node[3].nic.mac1609_4 collisions:count 0
attr recordingmode count
attr source org_car2x_veins_modules_mac_sigCollision
scalar BasicProjectNetwork.node[3].nic.mac1609_4 channelBusy:timeavg 0
attr recordingmode timeavg
attr source org_car2x_veins_modules_mac_sigChannelBusy
par BasicProjectNetwork.node[3].nic typename "\"org.car2x.veins.modules.nic.Nic80211p\""
par BasicProjectNetwork.node[3].nic connectionManagerName "\"connectionManager\""
par BasicProjectNetwork.node[3].veinsmobility typename "\"org.car2x.veins.modules.mobility.traci.TraCIMobility\""
par BasicProjectNetwork.node[3].veinsmobility notAffectedByHostState true
par BasicProjectNetwork.node[3].veinsmobility x 0
par BasicProjectNetwork.node[3].veinsmobility y 0
par BasicProjectNetwork.node[3].veinsmobility z 0
par BasicProjectNetwork.node[3].veinsmobility xOrientation 1
par BasicProjectNetwork.node[3].veinsmobility yOrientation 0
par BasicProjectNetwork.node[3].veinsmobility zOrientation 0
par BasicProjectNetwork.node[3].veinsmobility hostPositionOffset 0m
attr unit m
par BasicProjectNetwork.node[3].veinsmobility setHostSpeed false
par BasicProjectNetwork.node[3].veinsmobility accidentCount 0
par BasicProjectNetwork.node[3].veinsmobility accidentStart 32.9784s
attr unit s
par BasicProjectNetwork.node[3].veinsmobility accidentDuration "uniform(30s, 60s)"
attr unit s
par BasicProjectNetwork.node[3].veinsmobility accidentInterval "uniform(30s, 60s)"
attr unit s
scalar BasicProjectNetwork.node[3].veinsmobility startTime 4
scalar BasicProjectNetwork.node[3].veinsmobility totalTime 0
scalar BasicProjectNetwork.node[3].veinsmobility stopTime 4.297545221431
scalar BasicProjectNetwork.node[3].veinsmobility totalDistance 0
scalar BasicProjectNetwork.node[3].veinsmobility totalCO2Emission 0
par BasicProjectNetwork.node[3] typename "\"org.car2x.veins.nodes.Car\""
par BasicProjectNetwork.node[3] applType "\"MyVeinsApp\""
par BasicProjectNetwork.node[3] nicType "\"Nic80211p\""
par BasicProjectNetwork.node[3] veinsmobilityType "\"org.car2x.veins.modules.mobility.traci.TraCIMobility\""
par BasicProjectNetwork.rsu[0].appl typename "\"org.car2x.veins.modules.application.traci.TraCIDemoRSU11p\""
par BasicProjectNetwork.rsu[0].appl headerLength 80bit
attr unit bit
par BasicProjectNetwork.rsu[0].appl sendBeacons true
par BasicProjectNetwork.rsu[0].appl beaconLengthBits 256bit
attr unit bit
par BasicProjectNetwork.rsu[0].appl beaconUserPriority 7
par BasicProjectNetwork.rsu[0].appl beaconInterval 1s
attr unit s
par BasicProjectNetwork.rsu[0].appl dataLengthBits 1024bit
attr unit bit
par BasicProjectNetwork.rsu[0].appl dataOnSch false
par BasicProjectNetwork.rsu[0].appl dataUserPriority 5
par BasicProjectNetwork.rsu[0].appl avoidBeaconSynchronization true
par BasicProjectNetwork.rsu[0].appl sendWSA false
par BasicProjectNetwork.rsu[0].appl wsaLengthBits 250bit
attr unit bit
par BasicProjectNetwork.rsu[0].appl wsaInterval 1s
attr unit s
scalar BasicProjectNetwork.rsu[0].appl generatedWSMs 0
scalar BasicProjectNetwork.rsu[0].appl receivedWSMs 0
scalar BasicProjectNetwork.rsu[0].appl generatedBSMs 4
scalar BasicProjectNetwork.rsu[0].appl receivedBSMs 0
scalar BasicProjectNetwork.rsu[0].appl generatedWSAs 0
scalar BasicProjectNetwork.rsu[0].appl receivedWSAs 0
par BasicProjectNetwork.rsu[0].nic.phy80211p typename "\"org.car2x.veins.modules.phy.PhyLayer80211p\""
par BasicProjectNetwork.rsu[0].nic.phy80211p recordStats false
par BasicProjectNetwork.rsu[0].nic.phy80211p usePropagationDelay true
par BasicProjectNetwork.rsu[0].nic.phy80211p noiseFloor -98dBm
attr unit dBm
par BasicProjectNetwork.rsu[0].nic.phy80211p useNoiseFloor true
par BasicProjectNetwork.rsu[0].nic.phy80211p antenna "<Antenna type=\"SampledAntenna1D\" id=\"monopole\">...</Antenna> at C:/Users/tru89/Security-agent-in-VANETs-AI-Based-Intrusion-Detection/Configuration/Veins_simulation/TrafficLightProject2/simulations/\\antenna.xml:35"
par BasicProjectNetwork.rsu[0].nic.phy80211p antennaOffsetX 0m
attr unit m
par BasicProjectNetwork.rsu[0].nic.phy80211p antennaOffsetY 0m
attr unit m
par BasicProjectNetwork.rsu[0].nic.phy80211p antennaOffsetZ 0m
attr unit m
par BasicProjectNetwork.rsu[0].nic.phy80211p antennaOffsetYaw 0rad
attr unit rad
par BasicProjectNetwork.rsu[0].nic.phy80211p analogueModels "<root>...</root> at C:/Users/tru89/Security-agent-in-VANETs-AI-Based-Intrusion-Detection/Configuration/Veins_simulation/TrafficLightProject2/simulations/\\config.xml:34"
par BasicProjectNetwork.rsu[0].nic.phy80211p decider "<root>...</root> at C:/Users/tru89/Security-agent-in-VANETs-AI-Based-Intrusion-Detection/Configuration/Veins_simulation/TrafficLightProject2/simulations/\\config.xml:34"
par BasicProjectNetwork.rsu[0].nic.phy80211p minPowerLevel -110dBm
attr unit dBm
par BasicProjectNetwork.rsu[0].nic.phy80211p timeRXToTX 0s
attr unit s
par BasicProjectNetwork.rsu[0].nic.phy80211p timeRXToSleep 0s
attr unit s
par BasicProjectNetwork.rsu[0].nic.phy80211p timeTXToRX 0s
attr unit s
par BasicProjectNetwork.rsu[0].nic.phy80211p timeTXToSleep 0s
attr unit s
par BasicProjectNetwork.rsu[0].nic.phy80211p timeSleepToRX 0s
attr unit s
par BasicProjectNetwork.rsu[0].nic.phy80211p timeSleepToTX 0s
attr unit s
par BasicProjectNetwork.rsu[0].nic.phy80211p initialRadioState 0
par BasicProjectNetwork.rsu[0].nic.phy80211p radioMinAtt 1
par BasicProjectNetwork.rsu[0].nic.phy80211p radioMaxAtt 0
par BasicProjectNetwork.rsu[0].nic.phy80211p nbRadioChannels 1
par BasicProjectNetwork.rsu[0].nic.phy80211p initialRadioChannel 0
par BasicProjectNetwork.rsu[0].nic.phy80211p ccaThreshold -65dBm
attr unit dBm
par BasicProjectNetwork.rsu[0].nic.phy80211p collectCollisionStatistics false
par BasicProjectNetwork.rsu[0].nic.phy80211p allowTxDuringRx false
scalar BasicProjectNetwork.rsu[0].nic.phy80211p busyTime 0
par BasicProjectNetwork.rsu[0].nic.mac1609_4 typename "\"org.car2x.veins.modules.mac.ieee80211p.Mac1609_4\""
par BasicProjectNetwork.rsu[0].nic.mac1609_4 notAffectedByHostState false
par BasicProjectNetwork.rsu[0].nic.mac1609_4 headerLength 0bit
attr unit bit
par BasicProjectNetwork.rsu[0].nic.mac1609_4 address "\"auto\""
par BasicProjectNetwork.rsu[0].nic.mac1609_4 useServiceChannel false
par BasicProjectNetwork.rsu[0].nic.mac1609_4 serviceChannel 1
par BasicProjectNetwork.rsu[0].nic.mac1609_4 bitrate 6000000bps
attr unit bps
par BasicProjectNetwork.rsu[0].nic.mac1609_4 syncOffset 0.0003s
attr unit s
par BasicProjectNetwork.rsu[0].nic.mac1609_4 txPower 20mW
attr unit mW
par BasicProjectNetwork.rsu[0].nic.mac1609_4 queueSize 0
par BasicProjectNetwork.rsu[0].nic.mac1609_4 dot11RTSThreshold 12000bit
attr unit bit
par BasicProjectNetwork.rsu[0].nic.mac1609_4 dot11ShortRetryLimit 7
par BasicProjectNetwork.rsu[0].nic.mac1609_4 dot11LongRetryLimit 4
par BasicProjectNetwork.rsu[0].nic.mac1609_4 ackLength 112bit
attr unit bit
par BasicProjectNetwork.rsu[0].nic.mac1609_4 useAcks false
par BasicProjectNetwork.rsu[0].nic.mac1609_4 frameErrorRate 0
par BasicProjectNetwork.rsu[0].nic.mac1609_4 ackErrorRate 0
scalar BasicProjectNetwork.rsu[0].nic.mac1609_4 ReceivedUnicastPackets 0
scalar BasicProjectNetwork.rsu[0].nic.mac1609_4 ReceivedBroadcasts 0
scalar BasicProjectNetwork.rsu[0].nic.mac1609_4 SentPackets 4
scalar BasicProjectNetwork.rsu[0].nic.mac1609_4 SentAcknowledgements 0
scalar BasicProjectNetwork.rsu[0].nic.mac1609_4 RetriesExceeded 0
scalar BasicProjectNetwork.rsu[0].nic.mac1609_4 SNIRLostPackets 0
scalar BasicProjectNetwork.rsu[0].nic.mac1609_4 RXTXLostPackets 0
scalar BasicProjectNetwork.rsu[0].nic.mac1609_4 TotalLostPackets 0
scalar BasicProjectNetwork.rsu[0].nic.mac1609_4 DroppedPacketsInMac 0
scalar BasicProjectNetwork.rsu[0].nic.mac1609_4 TooLittleTime 0
scalar BasicProjectNetwork.rsu[0].nic.mac1609_4 TimesIntoBackoff 4
scalar BasicProjectNetwork.rsu[0].nic.mac1609_4 SlotsBackoff 9
scalar BasicProjectNetwork.rsu[0].nic.mac1609_4 NumInternalContention 0
scalar BasicProjectNetwork.rsu[0].nic.mac1609_4 totalBusyTime 0.00042
scalar BasicProjectNetwork.rsu[0].nic.mac1609_4 retriesExceeded:count 0
attr recordingmode count
attr source org_car2x_veins_modules_mac_sigRetriesExceeded
scalar BasicProjectNetwork.rsu[0].nic.mac1609_4 sentAcks:count 0
attr recordingmode count
attr source org_car2x_veins_modules_mac_sigSentAck
scalar BasicProjectNetwork.rsu[0].nic.mac1609_4 sentPackets:count 4
attr recordingmode count
attr source org_car2x_veins_modules_mac_sigSentPacket
scalar BasicProjectNetwork.rsu[0].nic.mac1609_4 collisions:count 0
attr recordingmode count
attr source org_car2x_veins_modules_mac_sigCollision
scalar BasicProjectNetwork.rsu[0].nic.mac1609_4 channelBusy:timeavg 9.7730210703902e-05
attr recordingmode timeavg
attr source org_car2x_veins_modules_mac_sigChannelBusy
par BasicProjectNetwork.rsu[0].nic typename "\"org.car2x.veins.modules.nic.Nic80211p\""
par BasicProjectNetwork.rsu[0].nic connectionManagerName "\"connectionManager\""
par BasicProjectNetwork.rsu[0].mobility typename "\"org.car2x.veins.base.modules.BaseMobility\""
par BasicProjectNetwork.rsu[0].mobility notAffectedByHostState true
par BasicProjectNetwork.rsu[0].mobility x 2000
par BasicProjectNetwork.rsu[0].mobility y 2000
par BasicProjectNetwork.rsu[0].mobility z 3
par BasicProjectNetwork.rsu[0].mobility xOrientation 1
par BasicProjectNetwork.rsu[0].mobility yOrientation 0
par BasicProjectNetwork.rsu[0].mobility zOrientation 0
par BasicProjectNetwork.rsu[0] typename "\"org.car2x.veins.nodes.RSU\""
par BasicProjectNetwork.rsu[0] applType "\"TraCIDemoRSU11p\""
par BasicProjectNetwork.rsu[0] nicType "\"Nic80211p\""
par BasicProjectNetwork typename "\"BasicProjectNetwork\""
par BasicProjectNetwork playgroundSizeX 8000m
attr unit m
par BasicProjectNetwork playgroundSizeY 10000m
attr unit m
par BasicProjectNetwork playgroundSizeZ 50m
attr unit m

