file 6510 1747228775                                            
version 3
run Default-0-20250514-15:18:36-24968
attr configname Default
attr datetime 20250514-15:18:36
attr datetimef 20250514-151836
attr experiment Default
attr inifile omnetpp.ini
attr iterationvars ""
attr iterationvarsd ""
attr iterationvarsf ""
attr measurement ""
attr network BasicProjectNetwork
attr processid 24968
attr repetition 0
attr replication #0
attr resultdir results
attr runnumber 0
attr seedset 0
config image-path ../../../veins-veins-5.3.1/images
config cmdenv-express-mode true
config cmdenv-autoflush true
config cmdenv-status-frequency 1s
config **.cmdenv-log-level info
config image-path ../../images
config network BasicProjectNetwork
config debug-on-errors true
config print-undisposed true
config sim-time-limit 30s
config **.scalar-recording true
config **.vector-recording true
config *.playgroundSizeX 2500m
config *.playgroundSizeY 2500m
config *.playgroundSizeZ 50m
config *.annotations.draw true
config *.obstacles.debug false
config *.manager.updateInterval 1s
config *.manager.host "\"localhost\""
config *.manager.port 9999
config *.manager.autoShutdown true
config *.manager.launchConfig "xmldoc(\"launchd.xml\")"
config *.manager.trafficLightModuleType "\"org.car2x.veins.nodes.TrafficLight\""
config *.tls[*].mobility.x 0
config *.tls[*].mobility.y 0
config *.tls[*].mobility.z 3
config *.tls[*].applType "\"org.car2x.veins.modules.application.traci.TraCIDemoTrafficLightApp\""
config *.tls[*].logicType "\"org.car2x.veins.modules.world.traci.trafficLight.logics.TraCITrafficLightSimpleLogic\""
config *.rsu[0].mobility.x 2000
config *.rsu[0].mobility.y 2000
config *.rsu[0].mobility.z 3
config *.rsu[*].applType "\"TraCIDemoRSU11p\""
config *.rsu[*].appl.headerLength "80 bit"
config *.rsu[*].appl.sendBeacons true
config *.rsu[*].appl.dataOnSch false
config *.rsu[*].appl.beaconInterval 1s
config *.rsu[*].appl.beaconUserPriority 7
config *.rsu[*].appl.dataUserPriority 5
config *.rsu[*].nic.phy80211p.antennaOffsetZ "0 m"
config *.connectionManager.sendDirect true
config *.connectionManager.maxInterfDist 2600m
config *.connectionManager.drawMaxIntfDist false
config *.**.nic.mac1609_4.useServiceChannel false
config *.**.nic.mac16094.useServiceChannel false
config *.**.nic.mac1609_4.txPower 20mW
config *.**.nic.mac1609_4.bitrate 6Mbps
config *.**.nic.phy80211p.minPowerLevel -110dBm
config *.**.nic.phy80211p.useNoiseFloor true
config *.**.nic.phy80211p.noiseFloor -98dBm
config *.**.nic.phy80211p.decider "xmldoc(\"config.xml\")"
config *.**.nic.phy80211p.analogueModels "xmldoc(\"config.xml\")"
config *.**.nic.phy80211p.usePropagationDelay true
config *.**.nic.phy80211p.antenna "xmldoc(\"antenna.xml\", \"/root/Antenna[@id='monopole']\")"
config *.node[*].nic.phy80211p.antennaOffsetY "0 m"
config *.node[*].nic.phy80211p.antennaOffsetZ "1.895 m"
config *.node[*].applType "\"TraCIDemo11p\""
config *.node[*].appl.headerLength "80 bit"
config *.node[*].appl.sendBeacons true
config *.node[*].appl.dataOnSch false
config *.node[*].appl.beaconInterval 1s
config *.node[*].veinsmobility.x 0
config *.node[*].veinsmobility.y 0
config *.node[*].veinsmobility.z 0
config *.node[*].veinsmobility.setHostSpeed false
config *.node[*0].veinsmobility.accidentCount 0
config *.node[*0].veinsmobility.accidentStart 73s
config *.node[*0].veinsmobility.accidentDuration 50s

vector 0 BasicProjectNetwork.node[0].veinsmobility posx ETV
vector 1 BasicProjectNetwork.node[0].veinsmobility posy ETV
vector 2 BasicProjectNetwork.node[1].veinsmobility posx ETV
vector 3 BasicProjectNetwork.node[1].veinsmobility posy ETV
vector 4 BasicProjectNetwork.node[0].veinsmobility speed ETV
vector 5 BasicProjectNetwork.node[1].veinsmobility speed ETV
vector 6 BasicProjectNetwork.node[0].veinsmobility acceleration ETV
vector 7 BasicProjectNetwork.node[0].veinsmobility co2emission ETV
vector 8 BasicProjectNetwork.node[1].veinsmobility acceleration ETV
vector 9 BasicProjectNetwork.node[1].veinsmobility co2emission ETV
0	4042 273 11 411 1 11 11 76.197405710783 79.997315689981 871.66694046311 69084.172885876
1	4315 274 11 411 1 11 11 24.130734931762 53.651928166352 414.56127814983 16609.223682223
2	4589 273 11 411 1 11 11 30.101047873433 123.2998654083 711.86711862345 56894.858680298
3	4862 274 11 411 1 11 11 26.600526524136 26.732664885967 293.52600597388 7832.5225289129
4	5136 254 51 411 2 11 10 0.086319760591712 7.1104160954133 30.468814306531 143.43793890273
5	5390 249 51 411 2 11 10 1.4392818092834 14.463075221476 93.189865408297 1092.6242261644
6	5639 219 91 411 3 11 9 -4.5 2.5855512305163 3.869790895959 46.729863187377
7	5858 195 91 411 3 11 9 0.973 4.4326416094096 22.791353594512 75.646897116241
8	6053 231 91 411 3 11 9 -0.19634001890663 2.5457943856018 12.827453393286 27.576488662491
9	6284 224 91 411 3 11 9 1.3914088986338 10.555661482811 43.305223157183 285.41810936996

