version 3
run Default-0-20250514-15:37:40-13856
attr configname Default
attr datetime 20250514-15:37:40
attr datetimef 20250514-153740
attr experiment Default
attr inifile omnetpp.ini
attr iterationvars ""
attr iterationvarsd ""
attr iterationvarsf ""
attr measurement ""
attr network BasicProjectNetwork
attr processid 13856
attr repetition 0
attr replication #0
attr resultdir results
attr runnumber 0
attr seedset 0
config image-path ../../../../veins/images
config cmdenv-express-mode true
config cmdenv-autoflush true
config cmdenv-status-frequency 1s
config **.cmdenv-log-level info
config image-path ../../images
config network BasicProjectNetwork
config debug-on-errors true
config print-undisposed true
config sim-time-limit 30s
config **.scalar-recording true
config **.vector-recording true
config *.playgroundSizeX 2500m
config *.playgroundSizeY 2500m
config *.playgroundSizeZ 50m
config *.annotations.draw true
config *.obstacles.debug false
config *.manager.updateInterval 1s
config *.manager.host "\"localhost\""
config *.manager.port 9999
config *.manager.autoShutdown true
config *.manager.launchConfig "xmldoc(\"launchd.xml\")"
config *.manager.trafficLightModuleType "\"org.car2x.veins.nodes.TrafficLight\""
config *.tls[*].mobility.x 0
config *.tls[*].mobility.y 0
config *.tls[*].mobility.z 3
config *.tls[*].applType "\"org.car2x.veins.modules.application.traci.TraCIDemoTrafficLightApp\""
config *.tls[*].logicType "\"org.car2x.veins.modules.world.traci.trafficLight.logics.TraCITrafficLightSimpleLogic\""
config *.rsu[0].mobility.x 2000
config *.rsu[0].mobility.y 2000
config *.rsu[0].mobility.z 3
config *.rsu[*].applType "\"TraCIDemoRSU11p\""
config *.rsu[*].appl.headerLength "80 bit"
config *.rsu[*].appl.sendBeacons true
config *.rsu[*].appl.dataOnSch false
config *.rsu[*].appl.beaconInterval 1s
config *.rsu[*].appl.beaconUserPriority 7
config *.rsu[*].appl.dataUserPriority 5
config *.rsu[*].nic.phy80211p.antennaOffsetZ "0 m"
config *.connectionManager.sendDirect true
config *.connectionManager.maxInterfDist 2600m
config *.connectionManager.drawMaxIntfDist false
config *.**.nic.mac1609_4.useServiceChannel false
config *.**.nic.mac16094.useServiceChannel false
config *.**.nic.mac1609_4.txPower 20mW
config *.**.nic.mac1609_4.bitrate 6Mbps
config *.**.nic.phy80211p.minPowerLevel -110dBm
config *.**.nic.phy80211p.useNoiseFloor true
config *.**.nic.phy80211p.noiseFloor -98dBm
config *.**.nic.phy80211p.decider "xmldoc(\"config.xml\")"
config *.**.nic.phy80211p.analogueModels "xmldoc(\"config.xml\")"
config *.**.nic.phy80211p.usePropagationDelay true
config *.**.nic.phy80211p.antenna "xmldoc(\"antenna.xml\", \"/root/Antenna[@id='monopole']\")"
config *.node[*].nic.phy80211p.antennaOffsetY "0 m"
config *.node[*].nic.phy80211p.antennaOffsetZ "1.895 m"
config *.node[*].applType "\"TraCIDemo11p\""
config *.node[*].appl.headerLength "80 bit"
config *.node[*].appl.sendBeacons true
config *.node[*].appl.dataOnSch false
config *.node[*].appl.beaconInterval 1s
config *.node[*].veinsmobility.x 0
config *.node[*].veinsmobility.y 0
config *.node[*].veinsmobility.z 0
config *.node[*].veinsmobility.setHostSpeed false
config *.node[*0].veinsmobility.accidentCount 0
config *.node[*0].veinsmobility.accidentStart 73s
config *.node[*0].veinsmobility.accidentDuration 50s

par BasicProjectNetwork.node[1].appl typename "\"org.car2x.veins.modules.application.traci.TraCIDemo11p\""
par BasicProjectNetwork.node[1].appl headerLength 80bit
attr unit bit
par BasicProjectNetwork.node[1].appl sendBeacons true
par BasicProjectNetwork.node[1].appl beaconLengthBits 256bit
attr unit bit
par BasicProjectNetwork.node[1].appl beaconUserPriority 7
par BasicProjectNetwork.node[1].appl beaconInterval 1s
attr unit s
par BasicProjectNetwork.node[1].appl dataLengthBits 1024bit
attr unit bit
par BasicProjectNetwork.node[1].appl dataOnSch false
par BasicProjectNetwork.node[1].appl dataUserPriority 7
par BasicProjectNetwork.node[1].appl avoidBeaconSynchronization true
par BasicProjectNetwork.node[1].appl sendWSA false
par BasicProjectNetwork.node[1].appl wsaLengthBits 250bit
attr unit bit
par BasicProjectNetwork.node[1].appl wsaInterval 1s
attr unit s
scalar BasicProjectNetwork.node[1].appl generatedWSMs 0
scalar BasicProjectNetwork.node[1].appl receivedWSMs 0
scalar BasicProjectNetwork.node[1].appl generatedBSMs 11
scalar BasicProjectNetwork.node[1].appl receivedBSMs 11
scalar BasicProjectNetwork.node[1].appl generatedWSAs 0
scalar BasicProjectNetwork.node[1].appl receivedWSAs 0
par BasicProjectNetwork.node[1].nic.phy80211p typename "\"org.car2x.veins.modules.phy.PhyLayer80211p\""
par BasicProjectNetwork.node[1].nic.phy80211p recordStats false
par BasicProjectNetwork.node[1].nic.phy80211p usePropagationDelay true
par BasicProjectNetwork.node[1].nic.phy80211p noiseFloor -98dBm
attr unit dBm
par BasicProjectNetwork.node[1].nic.phy80211p useNoiseFloor true
par BasicProjectNetwork.node[1].nic.phy80211p antenna "<Antenna type=\"SampledAntenna1D\" id=\"monopole\">...</Antenna> at C:/Users/nanem/Security-agent-in-VANETs-AI-Based-Intrusion-Detection/Configuration/Veins_simulation/BasicProject2ndTry/\\antenna.xml:35"
par BasicProjectNetwork.node[1].nic.phy80211p antennaOffsetX 0m
attr unit m
par BasicProjectNetwork.node[1].nic.phy80211p antennaOffsetY 0m
attr unit m
par BasicProjectNetwork.node[1].nic.phy80211p antennaOffsetZ 1.895m
attr unit m
par BasicProjectNetwork.node[1].nic.phy80211p antennaOffsetYaw 0rad
attr unit rad
par BasicProjectNetwork.node[1].nic.phy80211p analogueModels "<root>...</root> at C:/Users/nanem/Security-agent-in-VANETs-AI-Based-Intrusion-Detection/Configuration/Veins_simulation/BasicProject2ndTry/\\config.xml:34"
par BasicProjectNetwork.node[1].nic.phy80211p decider "<root>...</root> at C:/Users/nanem/Security-agent-in-VANETs-AI-Based-Intrusion-Detection/Configuration/Veins_simulation/BasicProject2ndTry/\\config.xml:34"
par BasicProjectNetwork.node[1].nic.phy80211p minPowerLevel -110dBm
attr unit dBm
par BasicProjectNetwork.node[1].nic.phy80211p timeRXToTX 0s
attr unit s
par BasicProjectNetwork.node[1].nic.phy80211p timeRXToSleep 0s
attr unit s
par BasicProjectNetwork.node[1].nic.phy80211p timeTXToRX 0s
attr unit s
par BasicProjectNetwork.node[1].nic.phy80211p timeTXToSleep 0s
attr unit s
par BasicProjectNetwork.node[1].nic.phy80211p timeSleepToRX 0s
attr unit s
par BasicProjectNetwork.node[1].nic.phy80211p timeSleepToTX 0s
attr unit s
par BasicProjectNetwork.node[1].nic.phy80211p initialRadioState 0
par BasicProjectNetwork.node[1].nic.phy80211p radioMinAtt 1
par BasicProjectNetwork.node[1].nic.phy80211p radioMaxAtt 0
par BasicProjectNetwork.node[1].nic.phy80211p nbRadioChannels 1
par BasicProjectNetwork.node[1].nic.phy80211p initialRadioChannel 0
par BasicProjectNetwork.node[1].nic.phy80211p ccaThreshold -65dBm
attr unit dBm
par BasicProjectNetwork.node[1].nic.phy80211p collectCollisionStatistics false
par BasicProjectNetwork.node[1].nic.phy80211p allowTxDuringRx false
scalar BasicProjectNetwork.node[1].nic.phy80211p busyTime 0.000104
par BasicProjectNetwork.node[1].nic.mac1609_4 typename "\"org.car2x.veins.modules.mac.ieee80211p.Mac1609_4\""
par BasicProjectNetwork.node[1].nic.mac1609_4 notAffectedByHostState false
par BasicProjectNetwork.node[1].nic.mac1609_4 headerLength 0bit
attr unit bit
par BasicProjectNetwork.node[1].nic.mac1609_4 address "\"auto\""
par BasicProjectNetwork.node[1].nic.mac1609_4 useServiceChannel false
par BasicProjectNetwork.node[1].nic.mac1609_4 serviceChannel 1
par BasicProjectNetwork.node[1].nic.mac1609_4 bitrate 6000000bps
attr unit bps
par BasicProjectNetwork.node[1].nic.mac1609_4 syncOffset 0.0003s
attr unit s
par BasicProjectNetwork.node[1].nic.mac1609_4 txPower 20mW
attr unit mW
par BasicProjectNetwork.node[1].nic.mac1609_4 queueSize 0
par BasicProjectNetwork.node[1].nic.mac1609_4 dot11RTSThreshold 12000bit
attr unit bit
par BasicProjectNetwork.node[1].nic.mac1609_4 dot11ShortRetryLimit 7
par BasicProjectNetwork.node[1].nic.mac1609_4 dot11LongRetryLimit 4
par BasicProjectNetwork.node[1].nic.mac1609_4 ackLength 112bit
attr unit bit
par BasicProjectNetwork.node[1].nic.mac1609_4 useAcks false
par BasicProjectNetwork.node[1].nic.mac1609_4 frameErrorRate 0
par BasicProjectNetwork.node[1].nic.mac1609_4 ackErrorRate 0
scalar BasicProjectNetwork.node[1].nic.mac1609_4 ReceivedUnicastPackets 0
scalar BasicProjectNetwork.node[1].nic.mac1609_4 ReceivedBroadcasts 11
scalar BasicProjectNetwork.node[1].nic.mac1609_4 SentPackets 11
scalar BasicProjectNetwork.node[1].nic.mac1609_4 SentAcknowledgements 0
scalar BasicProjectNetwork.node[1].nic.mac1609_4 RetriesExceeded 0
scalar BasicProjectNetwork.node[1].nic.mac1609_4 SNIRLostPackets 0
scalar BasicProjectNetwork.node[1].nic.mac1609_4 RXTXLostPackets 0
scalar BasicProjectNetwork.node[1].nic.mac1609_4 TotalLostPackets 0
scalar BasicProjectNetwork.node[1].nic.mac1609_4 DroppedPacketsInMac 0
scalar BasicProjectNetwork.node[1].nic.mac1609_4 TooLittleTime 0
scalar BasicProjectNetwork.node[1].nic.mac1609_4 TimesIntoBackoff 11
scalar BasicProjectNetwork.node[1].nic.mac1609_4 SlotsBackoff 14
scalar BasicProjectNetwork.node[1].nic.mac1609_4 NumInternalContention 0
scalar BasicProjectNetwork.node[1].nic.mac1609_4 totalBusyTime 0.002299
scalar BasicProjectNetwork.node[1].nic.mac1609_4 retriesExceeded:count 0
attr recordingmode count
attr source org_car2x_veins_modules_mac_sigRetriesExceeded
scalar BasicProjectNetwork.node[1].nic.mac1609_4 sentAcks:count 0
attr recordingmode count
attr source org_car2x_veins_modules_mac_sigSentAck
scalar BasicProjectNetwork.node[1].nic.mac1609_4 sentPackets:count 11
attr recordingmode count
attr source org_car2x_veins_modules_mac_sigSentPacket
scalar BasicProjectNetwork.node[1].nic.mac1609_4 collisions:count 0
attr recordingmode count
attr source org_car2x_veins_modules_mac_sigCollision
scalar BasicProjectNetwork.node[1].nic.mac1609_4 channelBusy:timeavg 0.000209
attr recordingmode timeavg
attr source org_car2x_veins_modules_mac_sigChannelBusy
par BasicProjectNetwork.node[1].nic typename "\"org.car2x.veins.modules.nic.Nic80211p\""
par BasicProjectNetwork.node[1].nic connectionManagerName "\"connectionManager\""
par BasicProjectNetwork.node[1].veinsmobility typename "\"org.car2x.veins.modules.mobility.traci.TraCIMobility\""
par BasicProjectNetwork.node[1].veinsmobility notAffectedByHostState true
par BasicProjectNetwork.node[1].veinsmobility x 0
par BasicProjectNetwork.node[1].veinsmobility y 0
par BasicProjectNetwork.node[1].veinsmobility z 0
par BasicProjectNetwork.node[1].veinsmobility xOrientation 1
par BasicProjectNetwork.node[1].veinsmobility yOrientation 0
par BasicProjectNetwork.node[1].veinsmobility zOrientation 0
par BasicProjectNetwork.node[1].veinsmobility hostPositionOffset 0m
attr unit m
par BasicProjectNetwork.node[1].veinsmobility setHostSpeed false
par BasicProjectNetwork.node[1].veinsmobility accidentCount 0
par BasicProjectNetwork.node[1].veinsmobility accidentStart 48.7069s
attr unit s
par BasicProjectNetwork.node[1].veinsmobility accidentDuration "uniform(30s, 60s)"
attr unit s
par BasicProjectNetwork.node[1].veinsmobility accidentInterval "uniform(30s, 60s)"
attr unit s
scalar BasicProjectNetwork.node[1].veinsmobility startTime 1
scalar BasicProjectNetwork.node[1].veinsmobility totalTime 10
scalar BasicProjectNetwork.node[1].veinsmobility stopTime 12
scalar BasicProjectNetwork.node[1].veinsmobility minSpeed 1.4392818092834
scalar BasicProjectNetwork.node[1].veinsmobility maxSpeed 14.463075221476
scalar BasicProjectNetwork.node[1].veinsmobility totalDistance 93.198911945704
scalar BasicProjectNetwork.node[1].veinsmobility totalCO2Emission 43.305223157183
par BasicProjectNetwork.node[1] typename "\"org.car2x.veins.nodes.Car\""
par BasicProjectNetwork.node[1] applType "\"TraCIDemo11p\""
par BasicProjectNetwork.node[1] nicType "\"Nic80211p\""
par BasicProjectNetwork.node[1] veinsmobilityType "\"org.car2x.veins.modules.mobility.traci.TraCIMobility\""
par BasicProjectNetwork.node[0].appl typename "\"org.car2x.veins.modules.application.traci.TraCIDemo11p\""
par BasicProjectNetwork.node[0].appl headerLength 80bit
attr unit bit
par BasicProjectNetwork.node[0].appl sendBeacons true
par BasicProjectNetwork.node[0].appl beaconLengthBits 256bit
attr unit bit
par BasicProjectNetwork.node[0].appl beaconUserPriority 7
par BasicProjectNetwork.node[0].appl beaconInterval 1s
attr unit s
par BasicProjectNetwork.node[0].appl dataLengthBits 1024bit
attr unit bit
par BasicProjectNetwork.node[0].appl dataOnSch false
par BasicProjectNetwork.node[0].appl dataUserPriority 7
par BasicProjectNetwork.node[0].appl avoidBeaconSynchronization true
par BasicProjectNetwork.node[0].appl sendWSA false
par BasicProjectNetwork.node[0].appl wsaLengthBits 250bit
attr unit bit
par BasicProjectNetwork.node[0].appl wsaInterval 1s
attr unit s
scalar BasicProjectNetwork.node[0].appl generatedWSMs 0
scalar BasicProjectNetwork.node[0].appl receivedWSMs 0
scalar BasicProjectNetwork.node[0].appl generatedBSMs 15
scalar BasicProjectNetwork.node[0].appl receivedBSMs 11
scalar BasicProjectNetwork.node[0].appl generatedWSAs 0
scalar BasicProjectNetwork.node[0].appl receivedWSAs 0
par BasicProjectNetwork.node[0].nic.phy80211p typename "\"org.car2x.veins.modules.phy.PhyLayer80211p\""
par BasicProjectNetwork.node[0].nic.phy80211p recordStats false
par BasicProjectNetwork.node[0].nic.phy80211p usePropagationDelay true
par BasicProjectNetwork.node[0].nic.phy80211p noiseFloor -98dBm
attr unit dBm
par BasicProjectNetwork.node[0].nic.phy80211p useNoiseFloor true
par BasicProjectNetwork.node[0].nic.phy80211p antenna "<Antenna type=\"SampledAntenna1D\" id=\"monopole\">...</Antenna> at C:/Users/nanem/Security-agent-in-VANETs-AI-Based-Intrusion-Detection/Configuration/Veins_simulation/BasicProject2ndTry/\\antenna.xml:35"
par BasicProjectNetwork.node[0].nic.phy80211p antennaOffsetX 0m
attr unit m
par BasicProjectNetwork.node[0].nic.phy80211p antennaOffsetY 0m
attr unit m
par BasicProjectNetwork.node[0].nic.phy80211p antennaOffsetZ 1.895m
attr unit m
par BasicProjectNetwork.node[0].nic.phy80211p antennaOffsetYaw 0rad
attr unit rad
par BasicProjectNetwork.node[0].nic.phy80211p analogueModels "<root>...</root> at C:/Users/nanem/Security-agent-in-VANETs-AI-Based-Intrusion-Detection/Configuration/Veins_simulation/BasicProject2ndTry/\\config.xml:34"
par BasicProjectNetwork.node[0].nic.phy80211p decider "<root>...</root> at C:/Users/nanem/Security-agent-in-VANETs-AI-Based-Intrusion-Detection/Configuration/Veins_simulation/BasicProject2ndTry/\\config.xml:34"
par BasicProjectNetwork.node[0].nic.phy80211p minPowerLevel -110dBm
attr unit dBm
par BasicProjectNetwork.node[0].nic.phy80211p timeRXToTX 0s
attr unit s
par BasicProjectNetwork.node[0].nic.phy80211p timeRXToSleep 0s
attr unit s
par BasicProjectNetwork.node[0].nic.phy80211p timeTXToRX 0s
attr unit s
par BasicProjectNetwork.node[0].nic.phy80211p timeTXToSleep 0s
attr unit s
par BasicProjectNetwork.node[0].nic.phy80211p timeSleepToRX 0s
attr unit s
par BasicProjectNetwork.node[0].nic.phy80211p timeSleepToTX 0s
attr unit s
par BasicProjectNetwork.node[0].nic.phy80211p initialRadioState 0
par BasicProjectNetwork.node[0].nic.phy80211p radioMinAtt 1
par BasicProjectNetwork.node[0].nic.phy80211p radioMaxAtt 0
par BasicProjectNetwork.node[0].nic.phy80211p nbRadioChannels 1
par BasicProjectNetwork.node[0].nic.phy80211p initialRadioChannel 0
par BasicProjectNetwork.node[0].nic.phy80211p ccaThreshold -65dBm
attr unit dBm
par BasicProjectNetwork.node[0].nic.phy80211p collectCollisionStatistics false
par BasicProjectNetwork.node[0].nic.phy80211p allowTxDuringRx false
scalar BasicProjectNetwork.node[0].nic.phy80211p busyTime 7.6266666666667e-05
par BasicProjectNetwork.node[0].nic.mac1609_4 typename "\"org.car2x.veins.modules.mac.ieee80211p.Mac1609_4\""
par BasicProjectNetwork.node[0].nic.mac1609_4 notAffectedByHostState false
par BasicProjectNetwork.node[0].nic.mac1609_4 headerLength 0bit
attr unit bit
par BasicProjectNetwork.node[0].nic.mac1609_4 address "\"auto\""
par BasicProjectNetwork.node[0].nic.mac1609_4 useServiceChannel false
par BasicProjectNetwork.node[0].nic.mac1609_4 serviceChannel 1
par BasicProjectNetwork.node[0].nic.mac1609_4 bitrate 6000000bps
attr unit bps
par BasicProjectNetwork.node[0].nic.mac1609_4 syncOffset 0.0003s
attr unit s
par BasicProjectNetwork.node[0].nic.mac1609_4 txPower 20mW
attr unit mW
par BasicProjectNetwork.node[0].nic.mac1609_4 queueSize 0
par BasicProjectNetwork.node[0].nic.mac1609_4 dot11RTSThreshold 12000bit
attr unit bit
par BasicProjectNetwork.node[0].nic.mac1609_4 dot11ShortRetryLimit 7
par BasicProjectNetwork.node[0].nic.mac1609_4 dot11LongRetryLimit 4
par BasicProjectNetwork.node[0].nic.mac1609_4 ackLength 112bit
attr unit bit
par BasicProjectNetwork.node[0].nic.mac1609_4 useAcks false
par BasicProjectNetwork.node[0].nic.mac1609_4 frameErrorRate 0
par BasicProjectNetwork.node[0].nic.mac1609_4 ackErrorRate 0
scalar BasicProjectNetwork.node[0].nic.mac1609_4 ReceivedUnicastPackets 0
scalar BasicProjectNetwork.node[0].nic.mac1609_4 ReceivedBroadcasts 11
scalar BasicProjectNetwork.node[0].nic.mac1609_4 SentPackets 15
scalar BasicProjectNetwork.node[0].nic.mac1609_4 SentAcknowledgements 0
scalar BasicProjectNetwork.node[0].nic.mac1609_4 RetriesExceeded 0
scalar BasicProjectNetwork.node[0].nic.mac1609_4 SNIRLostPackets 0
scalar BasicProjectNetwork.node[0].nic.mac1609_4 RXTXLostPackets 0
scalar BasicProjectNetwork.node[0].nic.mac1609_4 TotalLostPackets 0
scalar BasicProjectNetwork.node[0].nic.mac1609_4 DroppedPacketsInMac 0
scalar BasicProjectNetwork.node[0].nic.mac1609_4 TooLittleTime 0
scalar BasicProjectNetwork.node[0].nic.mac1609_4 TimesIntoBackoff 15
scalar BasicProjectNetwork.node[0].nic.mac1609_4 SlotsBackoff 26
scalar BasicProjectNetwork.node[0].nic.mac1609_4 NumInternalContention 0
scalar BasicProjectNetwork.node[0].nic.mac1609_4 totalBusyTime 0.002719
scalar BasicProjectNetwork.node[0].nic.mac1609_4 retriesExceeded:count 0
attr recordingmode count
attr source org_car2x_veins_modules_mac_sigRetriesExceeded
scalar BasicProjectNetwork.node[0].nic.mac1609_4 sentAcks:count 0
attr recordingmode count
attr source org_car2x_veins_modules_mac_sigSentAck
scalar BasicProjectNetwork.node[0].nic.mac1609_4 sentPackets:count 15
attr recordingmode count
attr source org_car2x_veins_modules_mac_sigSentPacket
scalar BasicProjectNetwork.node[0].nic.mac1609_4 collisions:count 0
attr recordingmode count
attr source org_car2x_veins_modules_mac_sigCollision
scalar BasicProjectNetwork.node[0].nic.mac1609_4 channelBusy:timeavg 0.00018126666666667
attr recordingmode timeavg
attr source org_car2x_veins_modules_mac_sigChannelBusy
par BasicProjectNetwork.node[0].nic typename "\"org.car2x.veins.modules.nic.Nic80211p\""
par BasicProjectNetwork.node[0].nic connectionManagerName "\"connectionManager\""
par BasicProjectNetwork.node[0].veinsmobility typename "\"org.car2x.veins.modules.mobility.traci.TraCIMobility\""
par BasicProjectNetwork.node[0].veinsmobility notAffectedByHostState true
par BasicProjectNetwork.node[0].veinsmobility x 0
par BasicProjectNetwork.node[0].veinsmobility y 0
par BasicProjectNetwork.node[0].veinsmobility z 0
par BasicProjectNetwork.node[0].veinsmobility xOrientation 1
par BasicProjectNetwork.node[0].veinsmobility yOrientation 0
par BasicProjectNetwork.node[0].veinsmobility zOrientation 0
par BasicProjectNetwork.node[0].veinsmobility hostPositionOffset 0m
attr unit m
par BasicProjectNetwork.node[0].veinsmobility setHostSpeed false
par BasicProjectNetwork.node[0].veinsmobility accidentCount 0
par BasicProjectNetwork.node[0].veinsmobility accidentStart 73s
attr unit s
par BasicProjectNetwork.node[0].veinsmobility accidentDuration 50s
attr unit s
par BasicProjectNetwork.node[0].veinsmobility accidentInterval "uniform(30s, 60s)"
attr unit s
scalar BasicProjectNetwork.node[0].veinsmobility startTime 1
scalar BasicProjectNetwork.node[0].veinsmobility totalTime 14
scalar BasicProjectNetwork.node[0].veinsmobility stopTime 16
scalar BasicProjectNetwork.node[0].veinsmobility minSpeed 0.086319760591712
scalar BasicProjectNetwork.node[0].veinsmobility maxSpeed 14.20835130096
scalar BasicProjectNetwork.node[0].veinsmobility totalDistance 75.329320466068
scalar BasicProjectNetwork.node[0].veinsmobility totalCO2Emission 53.369757952981
par BasicProjectNetwork.node[0] typename "\"org.car2x.veins.nodes.Car\""
par BasicProjectNetwork.node[0] applType "\"TraCIDemo11p\""
par BasicProjectNetwork.node[0] nicType "\"Nic80211p\""
par BasicProjectNetwork.node[0] veinsmobilityType "\"org.car2x.veins.modules.mobility.traci.TraCIMobility\""
par BasicProjectNetwork.obstacles typename "\"org.car2x.veins.modules.obstacle.ObstacleControl\""
par BasicProjectNetwork.obstacles obstacles "<obstacles/> at content:1"
par BasicProjectNetwork.obstacles gridCellSize 250
par BasicProjectNetwork.annotations typename "\"org.car2x.veins.modules.world.annotations.AnnotationManager\""
par BasicProjectNetwork.annotations draw true
par BasicProjectNetwork.annotations annotations "<annotations/> at content:1"
par BasicProjectNetwork.connectionManager typename "\"org.car2x.veins.base.connectionManager.ConnectionManager\""
par BasicProjectNetwork.connectionManager sendDirect true
par BasicProjectNetwork.connectionManager maxInterfDist 2600m
attr unit m
par BasicProjectNetwork.connectionManager drawMaxIntfDist false
par BasicProjectNetwork.world typename "\"org.car2x.veins.base.modules.BaseWorldUtility\""
par BasicProjectNetwork.world playgroundSizeX 2500m
attr unit m
par BasicProjectNetwork.world playgroundSizeY 2500m
attr unit m
par BasicProjectNetwork.world playgroundSizeZ 50m
attr unit m
par BasicProjectNetwork.world useTorus false
par BasicProjectNetwork.world use2D false
par BasicProjectNetwork.manager typename "\"org.car2x.veins.modules.mobility.traci.TraCIScenarioManagerLaunchd\""
par BasicProjectNetwork.manager connectAt 0s
attr unit s
par BasicProjectNetwork.manager firstStepAt -1s
attr unit s
par BasicProjectNetwork.manager updateInterval 1s
attr unit s
par BasicProjectNetwork.manager moduleType "\"org.car2x.veins.nodes.Car\""
par BasicProjectNetwork.manager moduleName "\"node\""
par BasicProjectNetwork.manager moduleDisplayString "\"*='i=veins/node/car;is=vs'\""
par BasicProjectNetwork.manager trafficLightModuleType "\"org.car2x.veins.nodes.TrafficLight\""
par BasicProjectNetwork.manager trafficLightModuleName "\"tls\""
par BasicProjectNetwork.manager trafficLightFilter "\"\""
par BasicProjectNetwork.manager trafficLightModuleDisplayString "\"i=veins/node/trafficlight;is=vs\""
par BasicProjectNetwork.manager host "\"localhost\""
par BasicProjectNetwork.manager port 9999
par BasicProjectNetwork.manager seed -1
par BasicProjectNetwork.manager autoShutdown true
par BasicProjectNetwork.manager margin 25
par BasicProjectNetwork.manager roiRoads "\"\""
par BasicProjectNetwork.manager roiRects "\"\""
par BasicProjectNetwork.manager penetrationRate 1
par BasicProjectNetwork.manager ignoreGuiCommands false
par BasicProjectNetwork.manager order -1
par BasicProjectNetwork.manager ignoreUnknownSubscriptionResults false
par BasicProjectNetwork.manager launchConfig "<launch>...</launch> at C:/Users/nanem/Security-agent-in-VANETs-AI-Based-Intrusion-Detection/Configuration/Veins_simulation/BasicProject2ndTry/\\launchd.xml:2"
scalar BasicProjectNetwork.manager roiArea 0
par BasicProjectNetwork.roadsCanvasVisualizer typename "\"org.car2x.veins.visualizer.roads.RoadsCanvasVisualizer\""
par BasicProjectNetwork.roadsCanvasVisualizer enabled true
par BasicProjectNetwork.roadsCanvasVisualizer lineZIndex -1
par BasicProjectNetwork.roadsCanvasVisualizer lineColor "\"firebrick4\""
par BasicProjectNetwork.roadsCanvasVisualizer lineWidth 1
par BasicProjectNetwork.roadsCanvasVisualizer lineWidthZoom false
par BasicProjectNetwork.rsu[0].appl typename "\"org.car2x.veins.modules.application.traci.TraCIDemoRSU11p\""
par BasicProjectNetwork.rsu[0].appl headerLength 80bit
attr unit bit
par BasicProjectNetwork.rsu[0].appl sendBeacons true
par BasicProjectNetwork.rsu[0].appl beaconLengthBits 256bit
attr unit bit
par BasicProjectNetwork.rsu[0].appl beaconUserPriority 7
par BasicProjectNetwork.rsu[0].appl beaconInterval 1s
attr unit s
par BasicProjectNetwork.rsu[0].appl dataLengthBits 1024bit
attr unit bit
par BasicProjectNetwork.rsu[0].appl dataOnSch false
par BasicProjectNetwork.rsu[0].appl dataUserPriority 5
par BasicProjectNetwork.rsu[0].appl avoidBeaconSynchronization true
par BasicProjectNetwork.rsu[0].appl sendWSA false
par BasicProjectNetwork.rsu[0].appl wsaLengthBits 250bit
attr unit bit
par BasicProjectNetwork.rsu[0].appl wsaInterval 1s
attr unit s
scalar BasicProjectNetwork.rsu[0].appl generatedWSMs 0
scalar BasicProjectNetwork.rsu[0].appl receivedWSMs 0
scalar BasicProjectNetwork.rsu[0].appl generatedBSMs 30
scalar BasicProjectNetwork.rsu[0].appl receivedBSMs 0
scalar BasicProjectNetwork.rsu[0].appl generatedWSAs 0
scalar BasicProjectNetwork.rsu[0].appl receivedWSAs 0
par BasicProjectNetwork.rsu[0].nic.phy80211p typename "\"org.car2x.veins.modules.phy.PhyLayer80211p\""
par BasicProjectNetwork.rsu[0].nic.phy80211p recordStats false
par BasicProjectNetwork.rsu[0].nic.phy80211p usePropagationDelay true
par BasicProjectNetwork.rsu[0].nic.phy80211p noiseFloor -98dBm
attr unit dBm
par BasicProjectNetwork.rsu[0].nic.phy80211p useNoiseFloor true
par BasicProjectNetwork.rsu[0].nic.phy80211p antenna "<Antenna type=\"SampledAntenna1D\" id=\"monopole\">...</Antenna> at C:/Users/nanem/Security-agent-in-VANETs-AI-Based-Intrusion-Detection/Configuration/Veins_simulation/BasicProject2ndTry/\\antenna.xml:35"
par BasicProjectNetwork.rsu[0].nic.phy80211p antennaOffsetX 0m
attr unit m
par BasicProjectNetwork.rsu[0].nic.phy80211p antennaOffsetY 0m
attr unit m
par BasicProjectNetwork.rsu[0].nic.phy80211p antennaOffsetZ 0m
attr unit m
par BasicProjectNetwork.rsu[0].nic.phy80211p antennaOffsetYaw 0rad
attr unit rad
par BasicProjectNetwork.rsu[0].nic.phy80211p analogueModels "<root>...</root> at C:/Users/nanem/Security-agent-in-VANETs-AI-Based-Intrusion-Detection/Configuration/Veins_simulation/BasicProject2ndTry/\\config.xml:34"
par BasicProjectNetwork.rsu[0].nic.phy80211p decider "<root>...</root> at C:/Users/nanem/Security-agent-in-VANETs-AI-Based-Intrusion-Detection/Configuration/Veins_simulation/BasicProject2ndTry/\\config.xml:34"
par BasicProjectNetwork.rsu[0].nic.phy80211p minPowerLevel -110dBm
attr unit dBm
par BasicProjectNetwork.rsu[0].nic.phy80211p timeRXToTX 0s
attr unit s
par BasicProjectNetwork.rsu[0].nic.phy80211p timeRXToSleep 0s
attr unit s
par BasicProjectNetwork.rsu[0].nic.phy80211p timeTXToRX 0s
attr unit s
par BasicProjectNetwork.rsu[0].nic.phy80211p timeTXToSleep 0s
attr unit s
par BasicProjectNetwork.rsu[0].nic.phy80211p timeSleepToRX 0s
attr unit s
par BasicProjectNetwork.rsu[0].nic.phy80211p timeSleepToTX 0s
attr unit s
par BasicProjectNetwork.rsu[0].nic.phy80211p initialRadioState 0
par BasicProjectNetwork.rsu[0].nic.phy80211p radioMinAtt 1
par BasicProjectNetwork.rsu[0].nic.phy80211p radioMaxAtt 0
par BasicProjectNetwork.rsu[0].nic.phy80211p nbRadioChannels 1
par BasicProjectNetwork.rsu[0].nic.phy80211p initialRadioChannel 0
par BasicProjectNetwork.rsu[0].nic.phy80211p ccaThreshold -65dBm
attr unit dBm
par BasicProjectNetwork.rsu[0].nic.phy80211p collectCollisionStatistics false
par BasicProjectNetwork.rsu[0].nic.phy80211p allowTxDuringRx false
scalar BasicProjectNetwork.rsu[0].nic.phy80211p busyTime 0
par BasicProjectNetwork.rsu[0].nic.mac1609_4 typename "\"org.car2x.veins.modules.mac.ieee80211p.Mac1609_4\""
par BasicProjectNetwork.rsu[0].nic.mac1609_4 notAffectedByHostState false
par BasicProjectNetwork.rsu[0].nic.mac1609_4 headerLength 0bit
attr unit bit
par BasicProjectNetwork.rsu[0].nic.mac1609_4 address "\"auto\""
par BasicProjectNetwork.rsu[0].nic.mac1609_4 useServiceChannel false
par BasicProjectNetwork.rsu[0].nic.mac1609_4 serviceChannel 1
par BasicProjectNetwork.rsu[0].nic.mac1609_4 bitrate 6000000bps
attr unit bps
par BasicProjectNetwork.rsu[0].nic.mac1609_4 syncOffset 0.0003s
attr unit s
par BasicProjectNetwork.rsu[0].nic.mac1609_4 txPower 20mW
attr unit mW
par BasicProjectNetwork.rsu[0].nic.mac1609_4 queueSize 0
par BasicProjectNetwork.rsu[0].nic.mac1609_4 dot11RTSThreshold 12000bit
attr unit bit
par BasicProjectNetwork.rsu[0].nic.mac1609_4 dot11ShortRetryLimit 7
par BasicProjectNetwork.rsu[0].nic.mac1609_4 dot11LongRetryLimit 4
par BasicProjectNetwork.rsu[0].nic.mac1609_4 ackLength 112bit
attr unit bit
par BasicProjectNetwork.rsu[0].nic.mac1609_4 useAcks false
par BasicProjectNetwork.rsu[0].nic.mac1609_4 frameErrorRate 0
par BasicProjectNetwork.rsu[0].nic.mac1609_4 ackErrorRate 0
scalar BasicProjectNetwork.rsu[0].nic.mac1609_4 ReceivedUnicastPackets 0
scalar BasicProjectNetwork.rsu[0].nic.mac1609_4 ReceivedBroadcasts 0
scalar BasicProjectNetwork.rsu[0].nic.mac1609_4 SentPackets 30
scalar BasicProjectNetwork.rsu[0].nic.mac1609_4 SentAcknowledgements 0
scalar BasicProjectNetwork.rsu[0].nic.mac1609_4 RetriesExceeded 0
scalar BasicProjectNetwork.rsu[0].nic.mac1609_4 SNIRLostPackets 0
scalar BasicProjectNetwork.rsu[0].nic.mac1609_4 RXTXLostPackets 0
scalar BasicProjectNetwork.rsu[0].nic.mac1609_4 TotalLostPackets 0
scalar BasicProjectNetwork.rsu[0].nic.mac1609_4 DroppedPacketsInMac 0
scalar BasicProjectNetwork.rsu[0].nic.mac1609_4 TooLittleTime 0
scalar BasicProjectNetwork.rsu[0].nic.mac1609_4 TimesIntoBackoff 30
scalar BasicProjectNetwork.rsu[0].nic.mac1609_4 SlotsBackoff 50
scalar BasicProjectNetwork.rsu[0].nic.mac1609_4 NumInternalContention 0
scalar BasicProjectNetwork.rsu[0].nic.mac1609_4 totalBusyTime 0.00315
scalar BasicProjectNetwork.rsu[0].nic.mac1609_4 retriesExceeded:count 0
attr recordingmode count
attr source org_car2x_veins_modules_mac_sigRetriesExceeded
scalar BasicProjectNetwork.rsu[0].nic.mac1609_4 sentAcks:count 0
attr recordingmode count
attr source org_car2x_veins_modules_mac_sigSentAck
scalar BasicProjectNetwork.rsu[0].nic.mac1609_4 sentPackets:count 30
attr recordingmode count
attr source org_car2x_veins_modules_mac_sigSentPacket
scalar BasicProjectNetwork.rsu[0].nic.mac1609_4 collisions:count 0
attr recordingmode count
attr source org_car2x_veins_modules_mac_sigCollision
scalar BasicProjectNetwork.rsu[0].nic.mac1609_4 channelBusy:timeavg 0.000105
attr recordingmode timeavg
attr source org_car2x_veins_modules_mac_sigChannelBusy
par BasicProjectNetwork.rsu[0].nic typename "\"org.car2x.veins.modules.nic.Nic80211p\""
par BasicProjectNetwork.rsu[0].nic connectionManagerName "\"connectionManager\""
par BasicProjectNetwork.rsu[0].mobility typename "\"org.car2x.veins.base.modules.BaseMobility\""
par BasicProjectNetwork.rsu[0].mobility notAffectedByHostState true
par BasicProjectNetwork.rsu[0].mobility x 2000
par BasicProjectNetwork.rsu[0].mobility y 2000
par BasicProjectNetwork.rsu[0].mobility z 3
par BasicProjectNetwork.rsu[0].mobility xOrientation 1
par BasicProjectNetwork.rsu[0].mobility yOrientation 0
par BasicProjectNetwork.rsu[0].mobility zOrientation 0
par BasicProjectNetwork.rsu[0] typename "\"org.car2x.veins.nodes.RSU\""
par BasicProjectNetwork.rsu[0] applType "\"TraCIDemoRSU11p\""
par BasicProjectNetwork.rsu[0] nicType "\"Nic80211p\""
par BasicProjectNetwork typename "\"BasicProjectNetwork\""
par BasicProjectNetwork playgroundSizeX 2500m
attr unit m
par BasicProjectNetwork playgroundSizeY 2500m
attr unit m
par BasicProjectNetwork playgroundSizeZ 50m
attr unit m

