version 3
run Default-0-20250514-15:37:40-13856
attr configname Default
attr datetime 20250514-15:37:40
attr datetimef 20250514-153740
attr experiment Default
attr inifile omnetpp.ini
attr iterationvars ""
attr iterationvarsd ""
attr iterationvarsf ""
attr measurement ""
attr network BasicProjectNetwork
attr processid 13856
attr repetition 0
attr replication #0
attr resultdir results
attr runnumber 0
attr seedset 0
config image-path ../../../../veins/images
config cmdenv-express-mode true
config cmdenv-autoflush true
config cmdenv-status-frequency 1s
config **.cmdenv-log-level info
config image-path ../../images
config network BasicProjectNetwork
config debug-on-errors true
config print-undisposed true
config sim-time-limit 30s
config **.scalar-recording true
config **.vector-recording true
config *.playgroundSizeX 2500m
config *.playgroundSizeY 2500m
config *.playgroundSizeZ 50m
config *.annotations.draw true
config *.obstacles.debug false
config *.manager.updateInterval 1s
config *.manager.host "\"localhost\""
config *.manager.port 9999
config *.manager.autoShutdown true
config *.manager.launchConfig "xmldoc(\"launchd.xml\")"
config *.manager.trafficLightModuleType "\"org.car2x.veins.nodes.TrafficLight\""
config *.tls[*].mobility.x 0
config *.tls[*].mobility.y 0
config *.tls[*].mobility.z 3
config *.tls[*].applType "\"org.car2x.veins.modules.application.traci.TraCIDemoTrafficLightApp\""
config *.tls[*].logicType "\"org.car2x.veins.modules.world.traci.trafficLight.logics.TraCITrafficLightSimpleLogic\""
config *.rsu[0].mobility.x 2000
config *.rsu[0].mobility.y 2000
config *.rsu[0].mobility.z 3
config *.rsu[*].applType "\"TraCIDemoRSU11p\""
config *.rsu[*].appl.headerLength "80 bit"
config *.rsu[*].appl.sendBeacons true
config *.rsu[*].appl.dataOnSch false
config *.rsu[*].appl.beaconInterval 1s
config *.rsu[*].appl.beaconUserPriority 7
config *.rsu[*].appl.dataUserPriority 5
config *.rsu[*].nic.phy80211p.antennaOffsetZ "0 m"
config *.connectionManager.sendDirect true
config *.connectionManager.maxInterfDist 2600m
config *.connectionManager.drawMaxIntfDist false
config *.**.nic.mac1609_4.useServiceChannel false
config *.**.nic.mac16094.useServiceChannel false
config *.**.nic.mac1609_4.txPower 20mW
config *.**.nic.mac1609_4.bitrate 6Mbps
config *.**.nic.phy80211p.minPowerLevel -110dBm
config *.**.nic.phy80211p.useNoiseFloor true
config *.**.nic.phy80211p.noiseFloor -98dBm
config *.**.nic.phy80211p.decider "xmldoc(\"config.xml\")"
config *.**.nic.phy80211p.analogueModels "xmldoc(\"config.xml\")"
config *.**.nic.phy80211p.usePropagationDelay true
config *.**.nic.phy80211p.antenna "xmldoc(\"antenna.xml\", \"/root/Antenna[@id='monopole']\")"
config *.node[*].nic.phy80211p.antennaOffsetY "0 m"
config *.node[*].nic.phy80211p.antennaOffsetZ "1.895 m"
config *.node[*].applType "\"TraCIDemo11p\""
config *.node[*].appl.headerLength "80 bit"
config *.node[*].appl.sendBeacons true
config *.node[*].appl.dataOnSch false
config *.node[*].appl.beaconInterval 1s
config *.node[*].veinsmobility.x 0
config *.node[*].veinsmobility.y 0
config *.node[*].veinsmobility.z 0
config *.node[*].veinsmobility.setHostSpeed false
config *.node[*0].veinsmobility.accidentCount 0
config *.node[*0].veinsmobility.accidentStart 73s
config *.node[*0].veinsmobility.accidentDuration 50s

vector 0 BasicProjectNetwork.rsu[0].nic.phy80211p RadioState ETV
vector 1 BasicProjectNetwork.rsu[0].nic.phy80211p RadioChannel ETV
vector 2 BasicProjectNetwork.node[0].nic.phy80211p RadioState ETV
vector 3 BasicProjectNetwork.node[0].nic.phy80211p RadioChannel ETV
vector 4 BasicProjectNetwork.manager posx ETV
vector 5 BasicProjectNetwork.manager posy ETV
vector 6 BasicProjectNetwork.node[1].nic.phy80211p RadioState ETV
vector 7 BasicProjectNetwork.node[1].nic.phy80211p RadioChannel ETV
vector 8 BasicProjectNetwork.manager posx ETV
vector 9 BasicProjectNetwork.manager posy ETV
vector 10 BasicProjectNetwork.manager speed ETV
vector 11 BasicProjectNetwork.manager speed ETV
vector 12 BasicProjectNetwork.manager acceleration ETV
vector 13 BasicProjectNetwork.manager co2emission ETV
vector 14 BasicProjectNetwork.manager acceleration ETV
vector 15 BasicProjectNetwork.manager co2emission ETV
15	91	3	2.1732912127287
15	131	4	3.9618293141696
15	171	5	5.59568457941
15	211	6	4.8632632113145
15	251	7	8.6778351440813
15	291	8	10.555661482811
15	331	9	1.8490220696698
15	371	10	4.2372272443642
15	411	11	1.3914088986338
14	91	3	1.3682811009465
14	131	4	2.1684262542287
14	171	5	2.3277717246674
14	211	6	1.5324021376204
14	251	7	2.5164690105012
14	291	8	2.5457943856018
14	331	9	-0.05218769853802
14	371	10	0.61683649716433
14	411	11	-0.19634001890663
11	51	2	1.4392818092834
11	91	3	2.8075629102299
11	131	4	4.9759891644586
11	171	5	7.303760889126
11	211	6	8.8361630267464
11	251	7	11.352632037248
11	291	8	13.898426422849
11	331	9	13.846238724311
11	371	10	14.463075221476
11	411	11	14.266735202569
9	11	1	26.732664885967
9	51	2	26.730594827889
9	91	3	26.726556829045
9	131	4	26.719400074545
9	171	5	26.708895384547
9	211	6	26.696186705445
9	251	7	26.679858695529
9	291	8	26.663710878339
9	331	9	26.644999914885
9	371	10	26.622611253552
9	411	11	26.600526524136
8	11	1	30.101047873433
8	51	2	31.540625405299
8	91	3	34.348765172507
8	131	4	39.325776730465
8	171	5	46.631038289591
8	211	6	55.469016841924
8	251	7	66.823981452016
8	291	8	80.723816259941
8	331	9	94.570054984252
8	371	10	109.03313020573
8	411	11	123.2998654083
13	91	3	3.8351988822478
13	131	4	3.1266669628555
13	171	5	4.4326416094096
13	211	6	0.973
13	251	7	0.973
13	291	8	0.973
13	331	9	1.3496488146704
13	371	10	2.7136719349524
13	411	11	4.414525390376
13	451	12	6.4230431164521
13	470	13	7.3896201416877
13	489	14	9.6784473634539
13	508	15	7.0872937368757
12	91	3	2.5855512305163
12	131	4	1.3408971355064
12	171	5	1.7194259538203
12	211	6	-4.5
12	251	7	-2.1053834633803
12	291	8	-0.41871287144128
12	331	9	0.85541299026519
12	371	10	2.0332066265866
12	411	11	2.3593932940857
12	451	12	2.5662959037116
12	470	13	2.3114088772098
12	489	14	2.5282658430282
12	508	15	1.4680480054813
10	51	2	1.4645417755703
10	91	3	4.0500930060865
10	131	4	5.3909901415929
10	171	5	7.1104160954133
10	211	6	2.6104160954133
10	251	7	0.50503263203299
10	291	8	0.086319760591712
10	331	9	0.94173275085691
10	371	10	2.9749393774435
10	411	11	5.3343326715293
10	451	12	7.9006285752409
10	470	13	10.212037452451
10	489	14	12.740303295479
10	508	15	14.20835130096
5	11	1	53.651928166352
5	51	2	52.187940092776
5	91	3	48.139378312779
5	131	4	42.750426352714
5	171	5	35.642698505352
5	211	6	33.033269334738
5	251	7	32.528427641318
5	291	8	32.442140515797
5	331	9	31.505454919802
5	371	10	28.548879376444
5	411	11	24.130734931762
5	451	12	23.477578816555
5	470	13	23.49226635758
5	489	14	23.510590196303
5	508	15	23.531025466307
4	11	1	79.997315689981
4	51	2	79.956341742385
4	91	3	79.84303101178
4	131	4	79.692205578707
4	171	5	79.493275222918
4	211	6	79.420242787735
4	251	7	79.406113330355
4	291	8	79.403698335162
4	331	9	79.304369318633
4	371	10	78.952941734668
4	411	11	76.197405710783
4	451	12	68.400557118229
4	470	13	58.188519665778
4	489	14	45.448216370299
4	508	15	31.239865069339

