file 6911 1750776941                                            
version 3
run Default-0-20250624-16:46:35-22932
attr configname Default
attr datetime 20250624-16:46:35
attr datetimef 20250624-164635
attr experiment Default
attr inifile omnetpp.ini
attr iterationvars ""
attr iterationvarsd ""
attr iterationvarsf ""
attr measurement ""
attr network BasicProjectNetwork
attr processid 22932
attr repetition 0
attr replication #0
attr resultdir results
attr runnumber 0
attr seedset 0
config image-path ../../../../veins-veins-5.3.1/images
config cmdenv-express-mode true
config cmdenv-autoflush true
config cmdenv-status-frequency 1s
config **.cmdenv-log-level trace
config image-path ../../images
config network BasicProjectNetwork
config debug-on-errors true
config print-undisposed true
config sim-time-limit 30s
config **.scalar-recording true
config **.vector-recording true
config *.playgroundSizeX 2500m
config *.playgroundSizeY 2500m
config *.playgroundSizeZ 50m
config *.annotations.draw true
config *.obstacles.debug false
config *.manager.updateInterval 1s
config *.manager.host "\"localhost\""
config *.manager.port 9999
config *.manager.autoShutdown true
config *.manager.launchConfig "xmldoc(\"launchd.xml\")"
config *.manager.trafficLightModuleType "\"org.car2x.veins.nodes.TrafficLight\""
config *.tls[*].mobility.x 0
config *.tls[*].mobility.y 0
config *.tls[*].mobility.z 3
config *.tls[*].applType "\"org.car2x.veins.modules.application.traci.TraCIDemoTrafficLightApp\""
config *.tls[*].logicType "\"org.car2x.veins.modules.world.traci.trafficLight.logics.TraCITrafficLightSimpleLogic\""
config *.rsu[0].mobility.x 2000
config *.rsu[0].mobility.y 2000
config *.rsu[0].mobility.z 3
config *.rsu[*].applType "\"TraCIDemoRSU11p\""
config *.rsu[*].appl.headerLength "80 bit"
config *.rsu[*].appl.sendBeacons true
config *.rsu[*].appl.dataOnSch false
config *.rsu[*].appl.beaconInterval 1s
config *.rsu[*].appl.beaconUserPriority 7
config *.rsu[*].appl.dataUserPriority 5
config *.rsu[*].nic.phy80211p.antennaOffsetZ "0 m"
config *.connectionManager.sendDirect true
config *.connectionManager.maxInterfDist 2600m
config *.connectionManager.drawMaxIntfDist false
config *.**.nic.mac1609_4.useServiceChannel false
config *.**.nic.mac16094.useServiceChannel false
config *.**.nic.mac1609_4.txPower 20mW
config *.**.nic.mac1609_4.bitrate 6Mbps
config *.**.nic.phy80211p.minPowerLevel -110dBm
config *.**.nic.phy80211p.useNoiseFloor true
config *.**.nic.phy80211p.noiseFloor -98dBm
config *.**.nic.phy80211p.decider "xmldoc(\"config.xml\")"
config *.**.nic.phy80211p.analogueModels "xmldoc(\"config.xml\")"
config *.**.nic.phy80211p.usePropagationDelay true
config *.**.nic.phy80211p.antenna "xmldoc(\"antenna.xml\", \"/root/Antenna[@id='monopole']\")"
config *.node[*].nic.phy80211p.antennaOffsetY "0 m"
config *.node[*].nic.phy80211p.antennaOffsetZ "1.895 m"
config *.node[*].applType "\"MyVeinsApp\""
config *.node[*].appl.headerLength "80 bit"
config *.node[*].appl.sendBeacons true
config *.node[*].appl.dataOnSch false
config *.node[*].appl.beaconInterval 1s
config *.node[*].veinsmobility.x 0
config *.node[*].veinsmobility.y 0
config *.node[*].veinsmobility.z 0
config *.node[*].veinsmobility.setHostSpeed false
config *.node[*0].veinsmobility.accidentCount 0
config *.node[*0].veinsmobility.accidentStart 5s
config *.node[*0].veinsmobility.accidentDuration 50s
config **.node[*].nic.mac1609_4.useAcks true
config **.node[*].nic.mac1609_4.pcapRecording true
config **.node[*].nic.mac1609_4.pcapFile "\"results/vehicle-network.pcap\""
config *.node[*].veinsmobility.collectStatistics true
config *.rsu[*].applLayer.collectStatistics true
config *.node[*].applLayer.packetReceived.vector-recording true
config *.node[*].applLayer.rssi.vector-recording true

vector 0 BasicProjectNetwork.node[0].veinsmobility posx ETV
vector 1 BasicProjectNetwork.node[0].veinsmobility posy ETV
vector 2 BasicProjectNetwork.node[1].veinsmobility posx ETV
vector 3 BasicProjectNetwork.node[1].veinsmobility posy ETV
vector 4 BasicProjectNetwork.node[0].veinsmobility speed ETV
vector 5 BasicProjectNetwork.node[1].veinsmobility speed ETV
vector 6 BasicProjectNetwork.node[0].veinsmobility acceleration ETV
vector 7 BasicProjectNetwork.node[0].veinsmobility co2emission ETV
vector 8 BasicProjectNetwork.node[1].veinsmobility acceleration ETV
vector 9 BasicProjectNetwork.node[1].veinsmobility co2emission ETV
0	4443 121 11 171 1 5 5 79.493275222918 79.997315689981 398.98216924577 31837.525139241
1	4564 122 11 171 1 5 5 35.642698505352 53.651928166352 232.37237142997 11017.511141518
2	4686 122 11 171 1 5 5 30.101047873433 46.631038289591 181.9472534713 6801.6922503319
3	4808 122 11 171 1 5 5 26.708895384547 26.732664885967 133.61811200199 3570.7603447006
4	4930 98 51 171 2 5 4 1.4645417755703 7.1104160954133 18.016041018663 98.168927727006
5	5028 97 51 171 2 5 4 1.4392818092834 7.303760889126 16.526594773098 88.059332911768
6	5125 74 91 171 3 5 3 1.3408971355064 2.5855512305163 5.645874319843 11.439505904305
7	5199 74 91 171 3 5 3 3.1266669628555 4.4326416094096 11.394507454513 44.133108400476
8	5273 74 91 171 3 5 3 1.3682811009465 2.3277717246674 5.8644790798426 11.992786793397
9	5347 72 91 171 3 5 3 2.1732912127287 5.59568457941 11.730805106308 51.730972122184
0	5419 100 211 331 6 9 4 79.304369318633 79.420242787735 317.53442377188 25207.036101023
1	5519 100 211 331 6 9 4 31.505454919802 33.033269334738 129.50929241166 4194.3816587082
2	5619 100 211 331 6 9 4 55.469016841924 94.570054984252 297.58686953813 23002.086137802
3	5719 100 211 331 6 9 4 26.644999914885 26.696186705445 106.6847561942 2845.4107428933
4	5819 104 211 331 6 9 4 0.086319760591712 2.6104160954133 4.1435012388949 7.963641825716
5	5923 100 211 331 6 9 4 8.8361630267464 13.898426422849 47.933460211154 591.84461505035
6	6023 93 211 331 6 9 4 -4.5 0.85541299026519 -6.1686833445564 25.5896913805
7	6116 70 211 331 6 9 4 0.973 1.3496488146704 4.2686488146704 4.6617389229413
8	6186 102 211 331 6 9 4 -0.05218769853802 2.5457943856018 6.5424778351853 15.164665201836
9	6288 100 211 331 6 9 4 1.8490220696698 10.555661482811 25.945781907876 213.7970238042
0	6388 52 371 411 10 11 2 76.197405710783 78.952941734668 155.15034744545 12039.611645612
1	6440 52 371 411 10 11 2 24.130734931762 28.548879376444 52.679614308206 1397.3308819977
2	6492 51 371 411 10 11 2 109.03313020573 123.2998654083 232.33299561402 27091.080292163
3	6543 52 371 411 10 11 2 26.600526524136 26.622611253552 53.223137777687 1416.351441319
4	6595 52 371 411 10 11 2 2.9749393774435 5.3343326715293 8.3092720489728 37.305369350009
5	6647 52 371 411 10 11 2 14.266735202569 14.463075221476 28.729810424045 412.72027820228
6	6699 52 371 411 10 11 2 2.0332066265866 2.3593932940857 4.3925999206724 9.7006659025725
7	6751 51 371 411 10 11 2 2.7136719349524 4.414525390376 7.1281973253285 26.852049792823
8	6802 55 371 411 10 11 2 -0.19634001890663 0.61683649716433 0.4204964782577 0.41903666725822
9	6857 52 371 411 10 11 2 1.3914088986338 4.2372272443642 5.628636142998 19.89011344358

