file 6133 1747387097                                            
version 3
run Default-0-20250516-11:16:16-5960
attr configname Default
attr datetime 20250516-11:16:16
attr datetimef 20250516-111616
attr experiment Default
attr inifile omnetpp.ini
attr iterationvars ""
attr iterationvarsd ""
attr iterationvarsf ""
attr measurement ""
attr network BasicProjectNetwork
attr processid 5960
attr repetition 0
attr replication #0
attr resultdir results
attr runnumber 0
attr seedset 0
config image-path ../../../veins-veins-5.3.1/images
config cmdenv-express-mode true
config cmdenv-autoflush true
config cmdenv-status-frequency 1s
config **.cmdenv-log-level trace
config image-path ../../images
config network BasicProjectNetwork
config debug-on-errors true
config print-undisposed true
config sim-time-limit 30s
config **.scalar-recording true
config **.vector-recording true
config *.playgroundSizeX 2500m
config *.playgroundSizeY 2500m
config *.playgroundSizeZ 50m
config *.annotations.draw true
config *.obstacles.debug false
config *.manager.updateInterval 1s
config *.manager.host "\"localhost\""
config *.manager.port 9999
config *.manager.autoShutdown true
config *.manager.launchConfig "xmldoc(\"launchd.xml\")"
config *.manager.trafficLightModuleType "\"org.car2x.veins.nodes.TrafficLight\""
config *.tls[*].mobility.x 0
config *.tls[*].mobility.y 0
config *.tls[*].mobility.z 3
config *.tls[*].applType "\"org.car2x.veins.modules.application.traci.TraCIDemoTrafficLightApp\""
config *.tls[*].logicType "\"org.car2x.veins.modules.world.traci.trafficLight.logics.TraCITrafficLightSimpleLogic\""
config *.rsu[0].mobility.x 2000
config *.rsu[0].mobility.y 2000
config *.rsu[0].mobility.z 3
config *.rsu[*].applType "\"TraCIDemoRSU11p\""
config *.rsu[*].appl.headerLength "80 bit"
config *.rsu[*].appl.sendBeacons true
config *.rsu[*].appl.dataOnSch false
config *.rsu[*].appl.beaconInterval 1s
config *.rsu[*].appl.beaconUserPriority 7
config *.rsu[*].appl.dataUserPriority 5
config *.rsu[*].nic.phy80211p.antennaOffsetZ "0 m"
config *.connectionManager.sendDirect true
config *.connectionManager.maxInterfDist 2600m
config *.connectionManager.drawMaxIntfDist false
config *.**.nic.mac1609_4.useServiceChannel false
config *.**.nic.mac16094.useServiceChannel false
config *.**.nic.mac1609_4.txPower 20mW
config *.**.nic.mac1609_4.bitrate 6Mbps
config *.**.nic.phy80211p.minPowerLevel -110dBm
config *.**.nic.phy80211p.useNoiseFloor true
config *.**.nic.phy80211p.noiseFloor -98dBm
config *.**.nic.phy80211p.decider "xmldoc(\"config.xml\")"
config *.**.nic.phy80211p.analogueModels "xmldoc(\"config.xml\")"
config *.**.nic.phy80211p.usePropagationDelay true
config *.**.nic.phy80211p.antenna "xmldoc(\"antenna.xml\", \"/root/Antenna[@id='monopole']\")"
config *.node[*].nic.phy80211p.antennaOffsetY "0 m"
config *.node[*].nic.phy80211p.antennaOffsetZ "1.895 m"
config *.node[*].applType "\"TraCIDemo11p\""
config *.node[*].appl.headerLength "80 bit"
config *.node[*].appl.sendBeacons true
config *.node[*].appl.dataOnSch false
config *.node[*].appl.beaconInterval 1s
config *.node[*].veinsmobility.x 0
config *.node[*].veinsmobility.y 0
config *.node[*].veinsmobility.z 0
config *.node[*].veinsmobility.setHostSpeed false
config *.node[*0].veinsmobility.accidentCount 0
config *.node[*0].veinsmobility.accidentStart 5s
config *.node[*0].veinsmobility.accidentDuration 50s
config **.node[*].nic.mac1609_4.useAcks true
config **.node[*].nic.mac1609_4.pcapRecording true
config **.node[*].nic.mac1609_4.pcapFile "\"results/vehicle-network.pcap\""
config *.node[*].veinsmobility.collectStatistics true
config *.rsu[*].applLayer.collectStatistics true
config *.node[*].applLayer.packetReceived.vector-recording true
config *.node[*].applLayer.rssi.vector-recording true

vector 0 BasicProjectNetwork.node[0].veinsmobility posx ETV
vector 1 BasicProjectNetwork.node[0].veinsmobility posy ETV
vector 2 BasicProjectNetwork.node[1].veinsmobility posx ETV
vector 3 BasicProjectNetwork.node[1].veinsmobility posy ETV
vector 4 BasicProjectNetwork.node[0].veinsmobility speed ETV
vector 5 BasicProjectNetwork.node[1].veinsmobility speed ETV
vector 6 BasicProjectNetwork.node[0].veinsmobility acceleration ETV
vector 7 BasicProjectNetwork.node[0].veinsmobility co2emission ETV
vector 8 BasicProjectNetwork.node[1].veinsmobility acceleration ETV
vector 9 BasicProjectNetwork.node[1].veinsmobility co2emission ETV
0	4440 196 11 291 1 8 8 79.403698335162 79.997315689981 637.21222369902 50755.378247238
1	4636 197 11 291 1 8 8 32.442140515797 53.651928166352 330.37620892182 14219.299110522
2	4833 197 11 291 1 8 8 30.101047873433 80.723816259941 384.96406802518 20860.28308841
3	5030 197 11 291 1 8 8 26.663710878339 26.732664885967 213.65786828131 5706.2150671297
4	5227 176 51 291 2 8 7 0.086319760591712 7.1104160954133 21.217809506701 105.24570897869
5	5403 172 51 291 2 8 7 1.4392818092834 13.898426422849 50.613816259941 488.1856211515
6	5575 141 91 291 3 8 6 -4.5 2.5855512305163 -1.3782220149785 36.29746590089
7	5716 119 91 291 3 8 6 0.973 4.4326416094096 14.313507454513 46.973295400476
8	5835 149 91 291 3 8 6 1.3682811009465 2.5457943856018 12.459144613566 27.154728439354
9	5984 147 91 291 3 8 6 2.1732912127287 10.555661482811 35.827564944515 262.10911331226

