version 3
run Default-0-20250514-14:22:27-14560
attr configname Default
attr datetime 20250514-14:22:27
attr datetimef 20250514-142227
attr experiment Default
attr inifile omnetpp.ini
attr iterationvars ""
attr iterationvarsd ""
attr iterationvarsf ""
attr measurement ""
attr network BasicProjectNetwork
attr processid 14560
attr repetition 0
attr replication #0
attr resultdir results
attr runnumber 0
attr seedset 0
config image-path ../../../veins-veins-5.3.1/images
config cmdenv-express-mode true
config cmdenv-autoflush true
config cmdenv-status-frequency 1s
config **.cmdenv-log-level info
config image-path ../../images
config network BasicProjectNetwork
config debug-on-errors true
config print-undisposed true
config sim-time-limit 2000s
config **.scalar-recording true
config **.vector-recording true
config *.playgroundSizeX 2500m
config *.playgroundSizeY 2500m
config *.playgroundSizeZ 50m
config *.annotations.draw true
config *.obstacles.debug false
config *.manager.updateInterval 1s
config *.manager.host "\"localhost\""
config *.manager.port 9999
config *.manager.autoShutdown true
config *.manager.launchConfig "xmldoc(\"launchd.xml\")"
config *.manager.trafficLightModuleType "\"org.car2x.veins.nodes.TrafficLight\""
config *.tls[*].mobility.x 0
config *.tls[*].mobility.y 0
config *.tls[*].mobility.z 3
config *.tls[*].applType "\"org.car2x.veins.modules.application.traci.TraCIDemoTrafficLightApp\""
config *.tls[*].logicType "\"org.car2x.veins.modules.world.traci.trafficLight.logics.TraCITrafficLightSimpleLogic\""
config *.rsu[0].mobility.x 2000
config *.rsu[0].mobility.y 2000
config *.rsu[0].mobility.z 3
config *.rsu[*].applType "\"TraCIDemoRSU11p\""
config *.rsu[*].appl.headerLength "80 bit"
config *.rsu[*].appl.sendBeacons false
config *.rsu[*].appl.dataOnSch false
config *.rsu[*].appl.beaconInterval 1s
config *.rsu[*].appl.beaconUserPriority 7
config *.rsu[*].appl.dataUserPriority 5
config *.rsu[*].nic.phy80211p.antennaOffsetZ "0 m"
config *.connectionManager.sendDirect true
config *.connectionManager.maxInterfDist 2600m
config *.connectionManager.drawMaxIntfDist false
config *.**.nic.mac1609_4.useServiceChannel false
config *.**.nic.mac1609_4.txPower 20mW
config *.**.nic.mac1609_4.bitrate 6Mbps
config *.**.nic.phy80211p.minPowerLevel -110dBm
config *.**.nic.phy80211p.useNoiseFloor true
config *.**.nic.phy80211p.noiseFloor -98dBm
config *.**.nic.phy80211p.decider "xmldoc(\"config.xml\")"
config *.**.nic.phy80211p.analogueModels "xmldoc(\"config.xml\")"
config *.**.nic.phy80211p.usePropagationDelay true
config *.**.nic.phy80211p.antenna "xmldoc(\"antenna.xml\", \"/root/Antenna[@id='monopole']\")"
config *.node[*].nic.phy80211p.antennaOffsetY "0 m"
config *.node[*].nic.phy80211p.antennaOffsetZ "1.895 m"
config *.node[*].applType "\"TraCIDemo11p\""
config *.node[*].appl.headerLength "80 bit"
config *.node[*].appl.sendBeacons false
config *.node[*].appl.dataOnSch false
config *.node[*].appl.beaconInterval 1s
config *.node[*].veinsmobility.x 0
config *.node[*].veinsmobility.y 0
config *.node[*].veinsmobility.z 0
config *.node[*].veinsmobility.setHostSpeed false
config *.node[*0].veinsmobility.accidentCount 0
config *.node[*0].veinsmobility.accidentStart 73s
config *.node[*0].veinsmobility.accidentDuration 50s

vector 0 BasicProjectNetwork.node[0].veinsmobility posx ETV
vector 1 BasicProjectNetwork.node[0].veinsmobility posy ETV
vector 2 BasicProjectNetwork.node[1].veinsmobility posx ETV
vector 3 BasicProjectNetwork.node[1].veinsmobility posy ETV
vector 4 BasicProjectNetwork.node[0].veinsmobility speed ETV
vector 5 BasicProjectNetwork.node[1].veinsmobility speed ETV
vector 6 BasicProjectNetwork.node[0].veinsmobility acceleration ETV
vector 7 BasicProjectNetwork.node[0].veinsmobility co2emission ETV
vector 8 BasicProjectNetwork.node[1].veinsmobility acceleration ETV
vector 9 BasicProjectNetwork.node[1].veinsmobility co2emission ETV
9	4	3	2.1732912127287
9	5	4	3.9618293141696
9	6	5	5.59568457941
9	7	6	4.8632632113145
9	8	7	8.6778351440813
9	9	8	10.555661482811
9	10	9	1.8490220696698
9	11	10	4.2372272443642
9	12	11	1.3914088986338
8	4	3	1.3682811009465
8	5	4	2.1684262542287
8	6	5	2.3277717246674
8	7	6	1.5324021376204
8	8	7	2.5164690105012
8	9	8	2.5457943856018
8	10	9	-0.05218769853802
8	11	10	0.61683649716433
8	12	11	-0.19634001890663
5	3	2	1.4392818092834
5	4	3	2.8075629102299
5	5	4	4.9759891644586
5	6	5	7.303760889126
5	7	6	8.8361630267464
5	8	7	11.352632037248
5	9	8	13.898426422849
5	10	9	13.846238724311
5	11	10	14.463075221476
5	12	11	14.266735202569
3	2	1	26.732664885967
3	3	2	26.730594827889
3	4	3	26.726556829045
3	5	4	26.719400074545
3	6	5	26.708895384547
3	7	6	26.696186705445
3	8	7	26.679858695529
3	9	8	26.663710878339
3	10	9	26.644999914885
3	11	10	26.622611253552
3	12	11	26.600526524136
2	2	1	30.101047873433
2	3	2	31.540625405299
2	4	3	34.348765172507
2	5	4	39.325776730465
2	6	5	46.631038289591
2	7	6	55.469016841924
2	8	7	66.823981452016
2	9	8	80.723816259941
2	10	9	94.570054984252
2	11	10	109.03313020573
2	12	11	123.2998654083
7	4	3	3.8351988822478
7	5	4	3.1266669628555
7	6	5	4.4326416094096
7	7	6	0.973
7	8	7	0.973
7	9	8	0.973
7	10	9	1.3496488146704
7	11	10	2.7136719349524
7	12	11	4.414525390376
7	13	12	6.4230431164521
7	14	13	7.3896201416877
7	15	14	9.6784473634539
7	16	15	7.0872937368757
6	4	3	2.5855512305163
6	5	4	1.3408971355064
6	6	5	1.7194259538203
6	7	6	-4.5
6	8	7	-2.1053834633803
6	9	8	-0.41871287144128
6	10	9	0.85541299026519
6	11	10	2.0332066265866
6	12	11	2.3593932940857
6	13	12	2.5662959037116
6	14	13	2.3114088772098
6	15	14	2.5282658430282
6	16	15	1.4680480054813
4	3	2	1.4645417755703
4	4	3	4.0500930060865
4	5	4	5.3909901415929
4	6	5	7.1104160954133
4	7	6	2.6104160954133
4	8	7	0.50503263203299
4	9	8	0.086319760591712
4	10	9	0.94173275085691
4	11	10	2.9749393774435
4	12	11	5.3343326715293
4	13	12	7.9006285752409
4	14	13	10.212037452451
4	15	14	12.740303295479
4	16	15	14.20835130096
1	2	1	53.651928166352
1	3	2	52.187940092776
1	4	3	48.139378312779
1	5	4	42.750426352714
1	6	5	35.642698505352
1	7	6	33.033269334738
1	8	7	32.528427641318
1	9	8	32.442140515797
1	10	9	31.505454919802
1	11	10	28.548879376444
1	12	11	24.130734931762
1	13	12	23.477578816555
1	14	13	23.49226635758
1	15	14	23.510590196303
1	16	15	23.531025466307
0	2	1	79.997315689981
0	3	2	79.956341742385
0	4	3	79.84303101178
0	5	4	79.692205578707
0	6	5	79.493275222918
0	7	6	79.420242787735
0	8	7	79.406113330355
0	9	8	79.403698335162
0	10	9	79.304369318633
0	11	10	78.952941734668
0	12	11	76.197405710783
0	13	12	68.400557118229
0	14	13	58.188519665778
0	15	14	45.448216370299
0	16	15	31.239865069339

