file 7672 1747301107                                            
version 3
run WithPacketRecording-0-20250515-11:23:34-32428
attr configname WithPacketRecording
attr datetime 20250515-11:23:34
attr datetimef 20250515-112334
attr experiment WithPacketRecording
attr inifile omnetpp.ini
attr iterationvars ""
attr iterationvarsd ""
attr iterationvarsf ""
attr measurement ""
attr network BasicProjectNetwork
attr processid 32428
attr repetition 0
attr replication #0
attr resultdir results
attr runnumber 0
attr seedset 0
config image-path ../../../veins-veins-5.3.1/images
config description "Configuration with PCAP packet recording enabled"
config *.rsu[*].appl.sendBeacons true
config *.node[*].appl.sendBeacons true
config *.node[*].appl.beaconInterval 1s
config **.nic.mac1609_4.useAcks true
config **.nic.mac1609_4.useServiceChannel false
config **.nic.mac1609_4.txPower 20mW
config **.nic.mac1609_4.bitrate 6Mbps
config **.nic.mac1609_4.pcapRecording true
config **.nic.mac1609_4.pcapFile "\"results/vehicle-network.pcap\""
config **.cmdenv-log-level trace
config sim-time-limit 200s
config *.rsu[*].appl.dataOnSch false
config *.node[*].appl.dataOnSch false
config cmdenv-express-mode true
config cmdenv-autoflush true
config cmdenv-status-frequency 1s
config **.cmdenv-log-level info
config image-path ../../images
config network BasicProjectNetwork
config debug-on-errors true
config print-undisposed true
config sim-time-limit 100s
config **.scalar-recording true
config **.vector-recording true
config *.playgroundSizeX 2500m
config *.playgroundSizeY 2500m
config *.playgroundSizeZ 50m
config *.annotations.draw true
config *.obstacles.debug false
config *.manager.updateInterval 1s
config *.manager.host "\"localhost\""
config *.manager.port 9999
config *.manager.autoShutdown true
config *.manager.launchConfig "xmldoc(\"launchd.xml\")"
config *.manager.trafficLightModuleType "\"org.car2x.veins.nodes.TrafficLight\""
config *.tls[*].mobility.x 0
config *.tls[*].mobility.y 0
config *.tls[*].mobility.z 3
config *.tls[*].applType "\"org.car2x.veins.modules.application.traci.TraCIDemoTrafficLightApp\""
config *.tls[*].logicType "\"org.car2x.veins.modules.world.traci.trafficLight.logics.TraCITrafficLightSimpleLogic\""
config *.rsu[0].mobility.x 2000
config *.rsu[0].mobility.y 2000
config *.rsu[0].mobility.z 3
config *.rsu[*].applType "\"TraCIDemoRSU11p\""
config *.rsu[*].appl.headerLength "80 bit"
config *.rsu[*].appl.sendBeacons true
config *.rsu[*].appl.dataOnSch false
config *.rsu[*].appl.beaconInterval 1s
config *.rsu[*].appl.beaconUserPriority 7
config *.rsu[*].appl.dataUserPriority 5
config *.rsu[*].nic.phy80211p.antennaOffsetZ "0 m"
config *.connectionManager.sendDirect true
config *.connectionManager.maxInterfDist 2600m
config *.connectionManager.drawMaxIntfDist false
config *.**.nic.mac1609_4.useServiceChannel false
config *.**.nic.mac16094.useServiceChannel false
config *.**.nic.mac1609_4.txPower 20mW
config *.**.nic.mac1609_4.bitrate 6Mbps
config *.**.nic.phy80211p.minPowerLevel -110dBm
config *.**.nic.phy80211p.useNoiseFloor true
config *.**.nic.phy80211p.noiseFloor -98dBm
config *.**.nic.phy80211p.decider "xmldoc(\"config.xml\")"
config *.**.nic.phy80211p.analogueModels "xmldoc(\"config.xml\")"
config *.**.nic.phy80211p.usePropagationDelay true
config *.**.nic.phy80211p.antenna "xmldoc(\"antenna.xml\", \"/root/Antenna[@id='monopole']\")"
config *.node[*].nic.phy80211p.antennaOffsetY "0 m"
config *.node[*].nic.phy80211p.antennaOffsetZ "1.895 m"
config *.node[*].applType "\"TraCIDemo11p\""
config *.node[*].appl.headerLength "80 bit"
config *.node[*].appl.sendBeacons true
config *.node[*].appl.dataOnSch false
config *.node[*].appl.beaconInterval 1s
config *.node[*].veinsmobility.x 0
config *.node[*].veinsmobility.y 0
config *.node[*].veinsmobility.z 0
config *.node[*].veinsmobility.setHostSpeed false
config *.node[*0].veinsmobility.accidentCount 0
config *.node[*0].veinsmobility.accidentStart 73s
config *.node[*0].veinsmobility.accidentDuration 50s

vector 0 BasicProjectNetwork.node[0].veinsmobility posx ETV
vector 1 BasicProjectNetwork.node[0].veinsmobility posy ETV
vector 2 BasicProjectNetwork.node[1].veinsmobility posx ETV
vector 3 BasicProjectNetwork.node[1].veinsmobility posy ETV
vector 4 BasicProjectNetwork.node[0].veinsmobility speed ETV
vector 5 BasicProjectNetwork.node[1].veinsmobility speed ETV
vector 6 BasicProjectNetwork.node[0].veinsmobility acceleration ETV
vector 7 BasicProjectNetwork.node[0].veinsmobility co2emission ETV
vector 8 BasicProjectNetwork.node[1].veinsmobility acceleration ETV
vector 9 BasicProjectNetwork.node[1].veinsmobility co2emission ETV
9	4686 224 91 411 3 11 9 1.3914088986338 10.555661482811 43.305223157183 285.41810936996
8	4910 231 91 411 3 11 9 -0.19634001890663 2.5457943856018 12.827453393286 27.576488662491
5	5141 249 51 411 2 11 10 1.4392818092834 14.463075221476 93.189865408297 1092.6242261644
3	5390 274 11 411 1 11 11 26.600526524136 26.732664885967 293.52600597388 7832.5225289129
2	5664 273 11 411 1 11 11 30.101047873433 123.2998654083 711.86711862345 56894.858680298
7	5937 299 91 508 3 15 13 0.973 9.6784473634539 53.369757952981 315.41094171038
6	6236 323 91 508 3 15 13 -4.5 2.5855512305163 12.74380952539 67.205641969849
4	6559 357 51 508 2 15 14 0.086319760591712 14.20835130096 75.530134930661 674.33615446918
1	6916 377 11 508 1 15 15 23.477578816555 53.651928166352 508.57273898658 18818.763978801
0	7293 377 11 508 1 15 15 31.239865069339 79.997315689981 1074.9440986868 80190.182461647

